10448938
  -OEChem-03302302563D

 48 51  0     1  0  0  0  0  0999 V2000
    0.4023   -0.8421   -2.7283 O   0  0  0  0  0  0  0  0  0  0  0  0
   -3.6530    2.6628    0.0018 O   0  0  0  0  0  0  0  0  0  0  0  0
    2.6937    0.3334   -1.4831 N   0  0  2  0  0  0  0  0  0  0  0  0
   -2.5885   -2.7162    0.7064 N   0  0  0  0  0  0  0  0  0  0  0  0
    2.6807    1.1505    0.9846 C   0  0  1  0  0  0  0  0  0  0  0  0
    1.6507   -0.3980   -0.7159 C   0  0  1  0  0  0  0  0  0  0  0  0
    1.5810    0.0982    0.7451 C   0  0  0  0  0  0  0  0  0  0  0  0
    4.0680    0.5837    0.5986 C   0  0  2  0  0  0  0  0  0  0  0  0
    2.3858    2.3107    0.0162 C   0  0  0  0  0  0  0  0  0  0  0  0
    4.0051    0.0448   -0.8491 C   0  0  0  0  0  0  0  0  0  0  0  0
    2.4627    1.7944   -1.4289 C   0  0  0  0  0  0  0  0  0  0  0  0
    0.2821   -0.3441   -1.3997 C   0  0  2  0  0  0  0  0  0  0  0  0
    4.5478   -0.4606    1.5616 C   0  0  0  0  0  0  0  0  0  0  0  0
   -0.7510   -1.1486   -0.6520 C   0  0  0  0  0  0  0  0  0  0  0  0
    5.6619   -0.3489    2.2929 C   0  0  0  0  0  0  0  0  0  0  0  0
   -1.9212   -0.5689   -0.1606 C   0  0  0  0  0  0  0  0  0  0  0  0
   -0.4930   -2.4945   -0.4719 C   0  0  0  0  0  0  0  0  0  0  0  0
   -2.8288   -1.4039    0.5245 C   0  0  0  0  0  0  0  0  0  0  0  0
   -2.2044    0.7966   -0.3327 C   0  0  0  0  0  0  0  0  0  0  0  0
   -1.4396   -3.2307    0.2112 C   0  0  0  0  0  0  0  0  0  0  0  0
   -3.9992   -0.8336    1.0175 C   0  0  0  0  0  0  0  0  0  0  0  0
   -3.3826    1.3406    0.1707 C   0  0  0  0  0  0  0  0  0  0  0  0
   -4.2809    0.5241    0.8467 C   0  0  0  0  0  0  0  0  0  0  0  0
   -4.8798    3.1501    0.5444 C   0  0  0  0  0  0  0  0  0  0  0  0
    2.6615    1.5034    2.0217 H   0  0  0  0  0  0  0  0  0  0  0  0
    1.9789   -1.4461   -0.7050 H   0  0  0  0  0  0  0  0  0  0  0  0
    1.7021   -0.7462    1.4332 H   0  0  0  0  0  0  0  0  0  0  0  0
    0.6149    0.5583    0.9813 H   0  0  0  0  0  0  0  0  0  0  0  0
    4.7799    1.4220    0.6096 H   0  0  0  0  0  0  0  0  0  0  0  0
    3.1070    3.1232    0.1639 H   0  0  0  0  0  0  0  0  0  0  0  0
    1.3889    2.7227    0.2145 H   0  0  0  0  0  0  0  0  0  0  0  0
    4.8007    0.5100   -1.4465 H   0  0  0  0  0  0  0  0  0  0  0  0
    4.2086   -1.0330   -0.8994 H   0  0  0  0  0  0  0  0  0  0  0  0
    1.5599    2.0739   -1.9825 H   0  0  0  0  0  0  0  0  0  0  0  0
    3.2774    2.3072   -1.9573 H   0  0  0  0  0  0  0  0  0  0  0  0
   -0.0057    0.6943   -1.5229 H   0  0  0  0  0  0  0  0  0  0  0  0
    3.9636   -1.3719    1.6611 H   0  0  0  0  0  0  0  0  0  0  0  0
    1.1054   -0.3364   -3.1706 H   0  0  0  0  0  0  0  0  0  0  0  0
    5.9585   -1.1454    2.9667 H   0  0  0  0  0  0  0  0  0  0  0  0
    6.2942    0.5301    2.2355 H   0  0  0  0  0  0  0  0  0  0  0  0
    0.3941   -2.9844   -0.8554 H   0  0  0  0  0  0  0  0  0  0  0  0
   -1.5500    1.4913   -0.8444 H   0  0  0  0  0  0  0  0  0  0  0  0
   -1.3006   -4.2931    0.3826 H   0  0  0  0  0  0  0  0  0  0  0  0
   -4.7186   -1.4529    1.5505 H   0  0  0  0  0  0  0  0  0  0  0  0
   -5.2178    0.8740    1.2667 H   0  0  0  0  0  0  0  0  0  0  0  0
   -4.9039    3.0521    1.6350 H   0  0  0  0  0  0  0  0  0  0  0  0
   -5.7457    2.6795    0.0666 H   0  0  0  0  0  0  0  0  0  0  0  0
   -4.9312    4.2200    0.3179 H   0  0  0  0  0  0  0  0  0  0  0  0
  1 12  1  0  0  0  0
  1 38  1  0  0  0  0
  2 22  1  0  0  0  0
  2 24  1  0  0  0  0
  3  6  1  0  0  0  0
  3 10  1  0  0  0  0
  3 11  1  0  0  0  0
  4 18  2  0  0  0  0
  4 20  1  0  0  0  0
  5  7  1  0  0  0  0
  5  8  1  0  0  0  0
  5  9  1  0  0  0  0
  5 25  1  0  0  0  0
  6  7  1  0  0  0  0
  6 12  1  0  0  0  0
  6 26  1  0  0  0  0
  7 27  1  0  0  0  0
  7 28  1  0  0  0  0
  8 10  1  0  0  0  0
  8 13  1  0  0  0  0
  8 29  1  0  0  0  0
  9 11  1  0  0  0  0
  9 30  1  0  0  0  0
  9 31  1  0  0  0  0
 10 32  1  0  0  0  0
 10 33  1  0  0  0  0
 11 34  1  0  0  0  0
 11 35  1  0  0  0  0
 12 14  1  0  0  0  0
 12 36  1  0  0  0  0
 13 15  2  0  0  0  0
 13 37  1  0  0  0  0
 14 16  2  0  0  0  0
 14 17  1  0  0  0  0
 15 39  1  0  0  0  0
 15 40  1  0  0  0  0
 16 18  1  0  0  0  0
 16 19  1  0  0  0  0
 17 20  2  0  0  0  0
 17 41  1  0  0  0  0
 18 21  1  0  0  0  0
 19 22  2  0  0  0  0
 19 42  1  0  0  0  0
 20 43  1  0  0  0  0
 21 23  2  0  0  0  0
 21 44  1  0  0  0  0
 22 23  1  0  0  0  0
 23 45  1  0  0  0  0
 24 46  1  0  0  0  0
 24 47  1  0  0  0  0
 24 48  1  0  0  0  0
M  END
> <PUBCHEM_COMPOUND_CID>
10448938

> <PUBCHEM_CONFORMER_RMSD>
0.8

> <PUBCHEM_CONFORMER_DIVERSEORDER>
1
6
7
2
3
4
5

> <PUBCHEM_MMFF94_PARTIAL_CHARGES>
29
1 -0.68
10 0.27
11 0.27
12 0.42
13 -0.29
14 -0.14
15 -0.3
17 -0.15
18 0.31
19 -0.15
2 -0.36
20 0.16
21 -0.15
22 0.08
23 -0.15
24 0.28
3 -0.81
37 0.15
38 0.4
39 0.15
4 -0.62
40 0.15
41 0.15
42 0.15
43 0.15
44 0.15
45 0.15
6 0.27
8 0.14

> <PUBCHEM_EFFECTIVE_ROTOR_COUNT>
5.2

> <PUBCHEM_PHARMACOPHORE_FEATURES>
9
1 1 acceptor
1 1 donor
1 15 hydrophobe
1 2 acceptor
1 3 cation
1 4 acceptor
6 16 18 19 21 22 23 rings
6 4 14 16 17 18 20 rings
8 3 5 6 7 8 9 10 11 rings

> <PUBCHEM_HEAVY_ATOM_COUNT>
24

> <PUBCHEM_ATOM_DEF_STEREO_COUNT>
4

> <PUBCHEM_ATOM_UDEF_STEREO_COUNT>
0

> <PUBCHEM_BOND_DEF_STEREO_COUNT>
0

> <PUBCHEM_BOND_UDEF_STEREO_COUNT>
0

> <PUBCHEM_ISOTOPIC_ATOM_COUNT>
0

> <PUBCHEM_COMPONENT_COUNT>
1

> <PUBCHEM_CACTVS_TAUTO_COUNT>
1

> <PUBCHEM_CONFORMER_ID>
009F702A00000001

> <PUBCHEM_MMFF94_ENERGY>
87.7007

> <PUBCHEM_FEATURE_SELFOVERLAP>
45.702

> <PUBCHEM_SHAPE_FINGERPRINT>
10042902 136 12180720211874325065
10319926 262 18411143515206247426
10692045 39 18127404545391306306
10928967 22 15791717599633776146
1100329 8 16756645413229076054
11552529 35 17170975917422407474
11595378 159 18042414697497775703
11725454 13 17703780405957472015
12077114 3 18272932751699799958
12107183 9 18189889830020658200
12173636 292 18339083795433483375
12403259 415 17988936556124540181
12403260 363 18410848902193129469
12422481 6 18045200671306240378
12596599 1 16299223673795875770
12596602 18 17096378396132443905
12633257 1 18409169938878114776
12670546 177 10952052255770352122
12788726 201 17973177406556864867
12892183 10 18265884951460083362
13004483 165 17552910037590225999
13103583 49 18187070746795067096
13544653 18 13045947918972167223
13583140 156 17917135226111938322
13675066 3 17988924513653440050
13726171 33 18125189205508037024
13878862 14 17252307506475452181
13965767 371 17751929017039993181
14178342 30 18337665425439504906
14251732 17 18059001792470280376
14251764 30 14273741690196295160
14420673 8 18262234401142526354
14466204 15 18339355258504161328
14739800 52 18193838382619989592
14951699 99 18200300152569351176
14957384 54 18113891654949590701
15209289 33 17313095359150367778
15238133 3 18410013200468611288
16110190 28 18261104180524366304
16728300 4 17098880660910926993
17349148 13 18263077876710293031
17780758 139 18190718939429806554
17974551 9 18261388987894324808
1813 80 16660363641544688326
18186145 218 15984279528971028438
19078846 21 18335136518814926200
19752476 56 17556866819556490393
20567600 254 18267017268148825453
21033648 29 17775283863742125024
212916 134 18340764858154016683
21304303 282 18199445746050638751
21403212 168 18043514028731657209
23559900 14 18128839493975241750
23622692 88 18261664918152729630
238918 7 18120362155987475629
3117164 225 18335976498322031962
3633792 109 17606374765627433311
3737641 26 16227438565874400042
3886686 26 18118115879597140107
445580 182 18263904619354597400
495365 180 17417817197249983270
5104073 3 18263927803113411384
5486654 36 17822004341963153618
7097593 13 18187919612500057530
7226269 152 17917423207969215152
7808743 9 18265352757203667957
84936 182 17909276780390432153
9981440 41 18337954485670852243

> <PUBCHEM_SHAPE_MULTIPOLES>
472.21
10.14
3.03
1.7
3.02
0.05
0.34
-4.4
-5.91
-4.06
-0.2
2.05
0.21
-0.57

> <PUBCHEM_SHAPE_SELFOVERLAP>
1030.153

> <PUBCHEM_SHAPE_VOLUME>
252.2

> <PUBCHEM_COORDINATE_TYPE>
2
5
10

$$$$
