12463131
  -OEChem-03302302553D

 20 21  0     0  0  0  0  0  0999 V2000
    4.1473   -0.0060    0.0003 O   0  0  0  0  0  0  0  0  0  0  0  0
   -1.3864    0.0207   -0.0009 N   0  0  0  0  0  0  0  0  0  0  0  0
   -2.0838   -1.1341    0.0005 N   0  0  0  0  0  0  0  0  0  0  0  0
   -0.0035    0.0141   -0.0004 C   0  0  0  0  0  0  0  0  0  0  0  0
    0.6996    1.2187    0.0003 C   0  0  0  0  0  0  0  0  0  0  0  0
    0.6880   -1.1973   -0.0007 C   0  0  0  0  0  0  0  0  0  0  0  0
   -2.1869    1.1324   -0.0010 C   0  0  0  0  0  0  0  0  0  0  0  0
    2.0945    1.2119    0.0006 C   0  0  0  0  0  0  0  0  0  0  0  0
    2.0829   -1.2042   -0.0004 C   0  0  0  0  0  0  0  0  0  0  0  0
    2.7862    0.0005    0.0003 C   0  0  0  0  0  0  0  0  0  0  0  0
   -3.4812    0.6728    0.0002 C   0  0  0  0  0  0  0  0  0  0  0  0
   -3.3567   -0.7295    0.0012 C   0  0  0  0  0  0  0  0  0  0  0  0
    0.2212    2.1919    0.0007 H   0  0  0  0  0  0  0  0  0  0  0  0
    0.1798   -2.1581   -0.0014 H   0  0  0  0  0  0  0  0  0  0  0  0
   -1.8242    2.1499   -0.0020 H   0  0  0  0  0  0  0  0  0  0  0  0
    2.6315    2.1568    0.0011 H   0  0  0  0  0  0  0  0  0  0  0  0
    2.6166   -2.1507   -0.0008 H   0  0  0  0  0  0  0  0  0  0  0  0
   -4.3829    1.2671    0.0003 H   0  0  0  0  0  0  0  0  0  0  0  0
   -4.1404   -1.4732    0.0024 H   0  0  0  0  0  0  0  0  0  0  0  0
    4.4668    0.9128    0.0007 H   0  0  0  0  0  0  0  0  0  0  0  0
  1 10  1  0  0  0  0
  1 20  1  0  0  0  0
  2  3  1  0  0  0  0
  2  4  1  0  0  0  0
  2  7  1  0  0  0  0
  3 12  2  0  0  0  0
  4  5  2  0  0  0  0
  4  6  1  0  0  0  0
  5  8  1  0  0  0  0
  5 13  1  0  0  0  0
  6  9  2  0  0  0  0
  6 14  1  0  0  0  0
  7 11  2  0  0  0  0
  7 15  1  0  0  0  0
  8 10  2  0  0  0  0
  8 16  1  0  0  0  0
  9 10  1  0  0  0  0
  9 17  1  0  0  0  0
 11 12  1  0  0  0  0
 11 18  1  0  0  0  0
 12 19  1  0  0  0  0
M  END
> <PUBCHEM_COMPOUND_CID>
12463131

> <PUBCHEM_CONFORMER_RMSD>
0.4

> <PUBCHEM_CONFORMER_DIVERSEORDER>
1
2

> <PUBCHEM_MMFF94_PARTIAL_CHARGES>
20
1 -0.53
10 0.08
11 -0.15
12 0.14
13 0.15
14 0.15
15 0.15
16 0.15
17 0.15
18 0.15
19 0.15
2 0.59
20 0.45
3 -0.71
4 -0.02
5 -0.15
6 -0.15
7 -0.3
8 -0.15
9 -0.15

> <PUBCHEM_EFFECTIVE_ROTOR_COUNT>
1

> <PUBCHEM_PHARMACOPHORE_FEATURES>
4
1 1 donor
1 3 acceptor
5 2 3 7 11 12 rings
6 4 5 6 8 9 10 rings

> <PUBCHEM_HEAVY_ATOM_COUNT>
12

> <PUBCHEM_ATOM_DEF_STEREO_COUNT>
0

> <PUBCHEM_ATOM_UDEF_STEREO_COUNT>
0

> <PUBCHEM_BOND_DEF_STEREO_COUNT>
0

> <PUBCHEM_BOND_UDEF_STEREO_COUNT>
0

> <PUBCHEM_ISOTOPIC_ATOM_COUNT>
0

> <PUBCHEM_COMPONENT_COUNT>
1

> <PUBCHEM_CACTVS_TAUTO_COUNT>
2

> <PUBCHEM_CONFORMER_ID>
00BE2C1B00000001

> <PUBCHEM_MMFF94_ENERGY>
28.5933

> <PUBCHEM_FEATURE_SELFOVERLAP>
20.297

> <PUBCHEM_SHAPE_FINGERPRINT>
10219947 1 18412827975683332974
10608611 8 18410006641679081829
11062470 55 18410573967971588464
11401426 45 18412538812957807568
11471102 20 18410851032032756021
12032990 46 18412833469062731038
12932764 1 17313375725719423865
13380535 76 18410292514612632787
14144814 61 18411138004752176401
14325111 11 18410856589710010785
15442244 35 18051695447187466720
15775835 57 18408889524805792541
16945 1 18410855460128168292
17844478 74 17968105200667381953
200 152 18131058356058753799
20201158 50 18409730646937910795
20645477 70 18339355241593401863
23402539 116 18059848451163350789
23402655 69 18341320090621185909
23463225 33 18335700520665920502
23552423 10 18333732450681488589
2748010 2 18050005794157781741
3312278 4 18413110545765966985
528886 8 18411414003603432114
53812653 166 18341608222443458976
7364860 26 18197215854258552550
8809292 202 18188214302774815523

> <PUBCHEM_SHAPE_MULTIPOLES>
231.12
6.17
1.4
0.59
0.21
0
0
0.02
0
-0.01
0
0.01
0.01
0

> <PUBCHEM_SHAPE_SELFOVERLAP>
503.269

> <PUBCHEM_SHAPE_VOLUME>
127.1

> <PUBCHEM_COORDINATE_TYPE>
2
5
10

$$$$
