12905275
  -OEChem-03302302553D

 44 45  0     1  0  0  0  0  0999 V2000
    0.2446    2.2683    0.4785 O   0  0  0  0  0  0  0  0  0  0  0  0
   -1.1569   -1.3789   -0.2427 O   0  0  0  0  0  0  0  0  0  0  0  0
   -5.5643   -0.0393    0.2493 O   0  0  0  0  0  0  0  0  0  0  0  0
    4.2491   -0.0713   -0.1567 N   0  0  2  0  0  0  0  0  0  0  0  0
    0.6010    0.4239   -0.8835 N   0  0  0  0  0  0  0  0  0  0  0  0
   -3.3546   -0.7054    0.0012 N   0  0  0  0  0  0  0  0  0  0  0  0
    2.7930   -0.1308    0.0313 C   0  0  2  0  0  0  0  0  0  0  0  0
    2.5134   -1.6350    0.0128 C   0  0  0  0  0  0  0  0  0  0  0  0
    3.8186   -2.2924    0.4475 C   0  0  0  0  0  0  0  0  0  0  0  0
    4.7828   -1.1426    0.6881 C   0  0  0  0  0  0  0  0  0  0  0  0
    2.0123    0.6025   -1.0522 C   0  0  0  0  0  0  0  0  0  0  0  0
    4.8242    1.2218    0.1935 C   0  0  0  0  0  0  0  0  0  0  0  0
    6.3335    1.2108    0.0654 C   0  0  0  0  0  0  0  0  0  0  0  0
   -0.1833    1.2845   -0.1196 C   0  0  0  0  0  0  0  0  0  0  0  0
   -1.6268    0.9470   -0.0221 C   0  0  0  0  0  0  0  0  0  0  0  0
   -2.0524   -0.3529   -0.0854 C   0  0  0  0  0  0  0  0  0  0  0  0
   -2.5382    1.9645    0.1366 C   0  0  0  0  0  0  0  0  0  0  0  0
   -3.8875    1.6416    0.2298 C   0  0  0  0  0  0  0  0  0  0  0  0
   -4.2407    0.3037    0.1570 C   0  0  0  0  0  0  0  0  0  0  0  0
   -1.6947   -2.6945   -0.2973 C   0  0  0  0  0  0  0  0  0  0  0  0
   -5.8732   -1.4255    0.1687 C   0  0  0  0  0  0  0  0  0  0  0  0
    2.5166    0.2589    1.0219 H   0  0  0  0  0  0  0  0  0  0  0  0
    1.6964   -1.8953    0.6948 H   0  0  0  0  0  0  0  0  0  0  0  0
    2.2409   -1.9969   -0.9862 H   0  0  0  0  0  0  0  0  0  0  0  0
    4.1863   -2.9478   -0.3509 H   0  0  0  0  0  0  0  0  0  0  0  0
    3.6863   -2.9018    1.3473 H   0  0  0  0  0  0  0  0  0  0  0  0
    5.7997   -1.4376    0.4108 H   0  0  0  0  0  0  0  0  0  0  0  0
    4.7710   -0.8689    1.7512 H   0  0  0  0  0  0  0  0  0  0  0  0
    2.2348    1.6747   -1.0372 H   0  0  0  0  0  0  0  0  0  0  0  0
    2.2699    0.2253   -2.0486 H   0  0  0  0  0  0  0  0  0  0  0  0
    4.4379    1.9902   -0.4854 H   0  0  0  0  0  0  0  0  0  0  0  0
    4.5499    1.5243    1.2121 H   0  0  0  0  0  0  0  0  0  0  0  0
    0.1703   -0.3593   -1.3649 H   0  0  0  0  0  0  0  0  0  0  0  0
    6.7218    2.2289    0.1800 H   0  0  0  0  0  0  0  0  0  0  0  0
    6.6509    0.8477   -0.9182 H   0  0  0  0  0  0  0  0  0  0  0  0
    6.8132    0.5986    0.8355 H   0  0  0  0  0  0  0  0  0  0  0  0
   -2.2365    3.0063    0.1863 H   0  0  0  0  0  0  0  0  0  0  0  0
   -4.6344    2.4180    0.3548 H   0  0  0  0  0  0  0  0  0  0  0  0
   -2.2080   -2.9491    0.6360 H   0  0  0  0  0  0  0  0  0  0  0  0
   -0.8613   -3.3921   -0.4237 H   0  0  0  0  0  0  0  0  0  0  0  0
   -2.3641   -2.8108   -1.1563 H   0  0  0  0  0  0  0  0  0  0  0  0
   -5.5698   -1.8399   -0.7987 H   0  0  0  0  0  0  0  0  0  0  0  0
   -5.4103   -1.9795    0.9923 H   0  0  0  0  0  0  0  0  0  0  0  0
   -6.9582   -1.5345    0.2569 H   0  0  0  0  0  0  0  0  0  0  0  0
  1 14  2  0  0  0  0
  2 16  1  0  0  0  0
  2 20  1  0  0  0  0
  3 19  1  0  0  0  0
  3 21  1  0  0  0  0
  4  7  1  0  0  0  0
  4 10  1  0  0  0  0
  4 12  1  0  0  0  0
  5 11  1  0  0  0  0
  5 14  1  0  0  0  0
  5 33  1  0  0  0  0
  6 16  1  0  0  0  0
  6 19  2  0  0  0  0
  7  8  1  0  0  0  0
  7 11  1  0  0  0  0
  7 22  1  0  0  0  0
  8  9  1  0  0  0  0
  8 23  1  0  0  0  0
  8 24  1  0  0  0  0
  9 10  1  0  0  0  0
  9 25  1  0  0  0  0
  9 26  1  0  0  0  0
 10 27  1  0  0  0  0
 10 28  1  0  0  0  0
 11 29  1  0  0  0  0
 11 30  1  0  0  0  0
 12 13  1  0  0  0  0
 12 31  1  0  0  0  0
 12 32  1  0  0  0  0
 13 34  1  0  0  0  0
 13 35  1  0  0  0  0
 13 36  1  0  0  0  0
 14 15  1  0  0  0  0
 15 16  2  0  0  0  0
 15 17  1  0  0  0  0
 17 18  2  0  0  0  0
 17 37  1  0  0  0  0
 18 19  1  0  0  0  0
 18 38  1  0  0  0  0
 20 39  1  0  0  0  0
 20 40  1  0  0  0  0
 20 41  1  0  0  0  0
 21 42  1  0  0  0  0
 21 43  1  0  0  0  0
 21 44  1  0  0  0  0
M  END
> <PUBCHEM_COMPOUND_CID>
12905275

> <PUBCHEM_CONFORMER_RMSD>
0.8

> <PUBCHEM_CONFORMER_DIVERSEORDER>
1
50
73
4
56
98
21
95
7
24
81
63
93
34
8
97
65
87
101
96
23
106
104
83
78
92
30
110
72
49
114
68
69
2
82
43
111
60
112
51
33
32
47
76
117
74
37
15
52
94
75
3
99
31
58
6
13
71
38
90
64
116
39
85
22
12
55
45
46
67
79
70
42
9
115
44
16
61
40
77
80
11
5
109
108
57
17
86
10
100
41
20
107
36
19
53
88
26
113
18
25
105
84
103
91
35
89
48
66
102
54
62
14
59
27
28
29

> <PUBCHEM_MMFF94_PARTIAL_CHARGES>
21
1 -0.57
10 0.27
11 0.3
12 0.27
14 0.54
15 0.09
16 0.39
17 -0.15
18 -0.15
19 0.39
2 -0.36
20 0.28
21 0.28
3 -0.36
33 0.37
37 0.15
38 0.15
4 -0.81
5 -0.73
6 -0.62
7 0.27

> <PUBCHEM_EFFECTIVE_ROTOR_COUNT>
8

> <PUBCHEM_PHARMACOPHORE_FEATURES>
6
1 1 acceptor
1 2 acceptor
1 4 cation
1 5 donor
5 4 7 8 9 10 rings
6 6 15 16 17 18 19 rings

> <PUBCHEM_HEAVY_ATOM_COUNT>
21

> <PUBCHEM_ATOM_DEF_STEREO_COUNT>
0

> <PUBCHEM_ATOM_UDEF_STEREO_COUNT>
1

> <PUBCHEM_BOND_DEF_STEREO_COUNT>
0

> <PUBCHEM_BOND_UDEF_STEREO_COUNT>
0

> <PUBCHEM_ISOTOPIC_ATOM_COUNT>
0

> <PUBCHEM_COMPONENT_COUNT>
1

> <PUBCHEM_CACTVS_TAUTO_COUNT>
2

> <PUBCHEM_CONFORMER_ID>
00C4EB3B00000001

> <PUBCHEM_MMFF94_ENERGY>
50.7013

> <PUBCHEM_FEATURE_SELFOVERLAP>
30.446

> <PUBCHEM_SHAPE_FINGERPRINT>
10366900 7 17275382097311306000
10447042 23 18408876335008868542
10616163 171 18339644542058444014
12107183 9 17618222810859521936
12236239 1 18113899346818870593
12596602 18 18186799171074415032
12788726 201 17489312932156008728
13073987 5 18409731729486012353
13167823 11 18337389340371807602
13533116 47 18412542085538660666
13551218 46 18337391543753795163
13862211 1 18412262861678694583
14251732 16 18410293648351747016
14251764 18 18341619226740547449
14341114 176 18413392021328330808
14341114 328 18412542115988131376
14617045 38 18412267259234212018
15196674 1 18338235964108839267
17492 89 18266176124215141362
1813 80 16950567653662555196
20510252 161 18129666287874641193
20511986 3 18261096479130688868
21065198 48 18338800018243603536
21267235 1 18410300177161239062
21673915 165 18335420171092246602
23402539 116 18343577439569326453
23559900 14 18272647973882728144
23622692 118 17771617129844573215
239999 70 18272095976987169742
3004659 81 18260549979281988218
335352 9 18411980283216869629
34797466 226 17775293802502416748
34934 24 18411697707900433838
350125 39 18411700976798138793
3545911 37 18411982468859389780
4214541 1 18337390431135569964
5104073 3 18337675204641656176
5486654 2 18338521936760451212
59682541 35 18337668741517845776
67856867 119 18189339133177097572
9709674 26 18340493270371824238

> <PUBCHEM_SHAPE_MULTIPOLES>
399.62
13.38
2.48
0.74
2.88
0.76
0.06
0.58
-1.98
-0.03
-0.17
0.25
-0.01
-0.5

> <PUBCHEM_SHAPE_SELFOVERLAP>
825.18

> <PUBCHEM_SHAPE_VOLUME>
231.5

> <PUBCHEM_COORDINATE_TYPE>
2
5
10

$$$$
