14839225
  -OEChem-03302302543D

 27 27  0     0  0  0  0  0  0999 V2000
    1.7066    0.0786    1.8121 O   0  0  0  0  0  0  0  0  0  0  0  0
    2.2763    0.4875   -0.4179 N   0  0  0  0  0  0  0  0  0  0  0  0
   -3.1339    1.9310    0.0311 N   0  0  0  0  0  0  0  0  0  0  0  0
   -0.0181   -0.0568    0.2993 C   0  0  0  0  0  0  0  0  0  0  0  0
   -0.4881   -1.3307   -0.0202 C   0  0  0  0  0  0  0  0  0  0  0  0
    1.3844    0.1694    0.6212 C   0  0  0  0  0  0  0  0  0  0  0  0
   -0.8966    1.0266    0.3169 C   0  0  0  0  0  0  0  0  0  0  0  0
   -1.8363   -1.5213   -0.3221 C   0  0  0  0  0  0  0  0  0  0  0  0
   -2.2451    0.8360    0.0150 C   0  0  0  0  0  0  0  0  0  0  0  0
   -2.7149   -0.4380   -0.3047 C   0  0  0  0  0  0  0  0  0  0  0  0
    0.4309   -2.5084   -0.0442 C   0  0  0  0  0  0  0  0  0  0  0  0
    3.6892    0.7433   -0.1756 C   0  0  0  0  0  0  0  0  0  0  0  0
    1.8456    0.5829   -1.8110 C   0  0  0  0  0  0  0  0  0  0  0  0
   -0.5299    2.0202    0.5661 H   0  0  0  0  0  0  0  0  0  0  0  0
   -2.2191   -2.5069   -0.5734 H   0  0  0  0  0  0  0  0  0  0  0  0
   -3.7633   -0.5993   -0.5422 H   0  0  0  0  0  0  0  0  0  0  0  0
    0.9158   -2.6391    0.9288 H   0  0  0  0  0  0  0  0  0  0  0  0
   -0.1053   -3.4381   -0.2643 H   0  0  0  0  0  0  0  0  0  0  0  0
    1.1962   -2.3831   -0.8170 H   0  0  0  0  0  0  0  0  0  0  0  0
    3.9276    0.6528    0.8872 H   0  0  0  0  0  0  0  0  0  0  0  0
    3.9283    1.7562   -0.5115 H   0  0  0  0  0  0  0  0  0  0  0  0
    4.2820    0.0170   -0.7388 H   0  0  0  0  0  0  0  0  0  0  0  0
    0.7855    0.3849   -1.9659 H   0  0  0  0  0  0  0  0  0  0  0  0
    2.4209   -0.1389   -2.3991 H   0  0  0  0  0  0  0  0  0  0  0  0
    2.0648    1.5929   -2.1706 H   0  0  0  0  0  0  0  0  0  0  0  0
   -2.7949    2.8548    0.2647 H   0  0  0  0  0  0  0  0  0  0  0  0
   -4.1119    1.7923   -0.1856 H   0  0  0  0  0  0  0  0  0  0  0  0
  1  6  2  0  0  0  0
  2  6  1  0  0  0  0
  2 12  1  0  0  0  0
  2 13  1  0  0  0  0
  3  9  1  0  0  0  0
  3 26  1  0  0  0  0
  3 27  1  0  0  0  0
  4  5  2  0  0  0  0
  4  6  1  0  0  0  0
  4  7  1  0  0  0  0
  5  8  1  0  0  0  0
  5 11  1  0  0  0  0
  7  9  2  0  0  0  0
  7 14  1  0  0  0  0
  8 10  2  0  0  0  0
  8 15  1  0  0  0  0
  9 10  1  0  0  0  0
 10 16  1  0  0  0  0
 11 17  1  0  0  0  0
 11 18  1  0  0  0  0
 11 19  1  0  0  0  0
 12 20  1  0  0  0  0
 12 21  1  0  0  0  0
 12 22  1  0  0  0  0
 13 23  1  0  0  0  0
 13 24  1  0  0  0  0
 13 25  1  0  0  0  0
M  END
> <PUBCHEM_COMPOUND_CID>
14839225

> <PUBCHEM_CONFORMER_RMSD>
0.6

> <PUBCHEM_CONFORMER_DIVERSEORDER>
1
3
2

> <PUBCHEM_MMFF94_PARTIAL_CHARGES>
18
1 -0.57
10 -0.15
11 0.14
12 0.3
13 0.3
14 0.15
15 0.15
16 0.15
2 -0.66
26 0.4
27 0.4
3 -0.9
4 0.09
5 -0.14
6 0.54
7 -0.15
8 -0.15
9 0.1

> <PUBCHEM_EFFECTIVE_ROTOR_COUNT>
2

> <PUBCHEM_PHARMACOPHORE_FEATURES>
4
1 1 acceptor
1 3 cation
1 3 donor
6 4 5 7 8 9 10 rings

> <PUBCHEM_HEAVY_ATOM_COUNT>
13

> <PUBCHEM_ATOM_DEF_STEREO_COUNT>
0

> <PUBCHEM_ATOM_UDEF_STEREO_COUNT>
0

> <PUBCHEM_BOND_DEF_STEREO_COUNT>
0

> <PUBCHEM_BOND_UDEF_STEREO_COUNT>
0

> <PUBCHEM_ISOTOPIC_ATOM_COUNT>
0

> <PUBCHEM_COMPONENT_COUNT>
1

> <PUBCHEM_CACTVS_TAUTO_COUNT>
1

> <PUBCHEM_CONFORMER_ID>
00E26DB900000001

> <PUBCHEM_MMFF94_ENERGY>
50.1544

> <PUBCHEM_FEATURE_SELFOVERLAP>
20.297

> <PUBCHEM_SHAPE_FINGERPRINT>
11206711 2 18341600564732989661
12138202 97 17917710218683782396
12423570 1 15678870709337819770
12716758 59 18341615979128047570
13380535 21 18270127803554478107
13538477 17 18042392706959531571
14614273 12 18334851706390118597
15219456 202 17417243381066031352
15775835 57 18187365423905549060
16945 1 18341320197768391147
17357990 137 17967824842165890868
18186145 218 18059872640065649276
18534176 82 18057618740091882852
19837323 101 18264788686173546043
20201158 50 17275116054173162894
20511035 2 18125429818344455319
20645476 183 17823126981520442827
20653085 51 18042709315037592956
21040471 1 18341323410261373931
21501502 16 18268703927322391787
22802520 49 18058471857661366662
23211744 41 17344320471023544395
23402539 116 18270672194463499404
23552423 10 18264485083889706523
23559900 14 18131634461897883550
2748010 2 18268709407806013735
276578 36 18198635341160409697
305870 269 18334296418399994134
3071541 158 17616536151279578207
5084963 1 17916871342877815731
53812653 8 18335980969013767115
7364860 26 18054790589589417566
77492 1 17822562902211707712
81228 2 17838607113255123067

> <PUBCHEM_SHAPE_MULTIPOLES>
251.7
4.64
1.92
1.13
1.32
0.89
0.06
-2.12
0.56
-1.06
0.08
0.85
-0.15
-0.29

> <PUBCHEM_SHAPE_SELFOVERLAP>
519.07

> <PUBCHEM_SHAPE_VOLUME>
147.1

> <PUBCHEM_COORDINATE_TYPE>
2
5
10

$$$$
