15623770
  -OEChem-03302302533D

 25 26  0     1  0  0  0  0  0999 V2000
    4.3250    0.9747    0.2426 O   0  0  0  0  0  0  0  0  0  0  0  0
    3.1127   -1.0268    0.1854 N   0  0  0  0  0  0  0  0  0  0  0  0
   -4.5679    0.2370    0.3607 N   0  0  0  0  0  0  0  0  0  0  0  0
    1.0510   -0.2032   -0.5373 C   0  0  1  0  0  0  0  0  0  0  0  0
    1.9074    0.9606   -0.0019 C   0  0  0  0  0  0  0  0  0  0  0  0
    1.7339   -1.4181    0.0944 C   0  0  0  0  0  0  0  0  0  0  0  0
   -0.4386   -0.0865   -0.3001 C   0  0  0  0  0  0  0  0  0  0  0  0
    3.2800    0.3509    0.1420 C   0  0  0  0  0  0  0  0  0  0  0  0
   -1.2066   -1.2371   -0.1462 C   0  0  0  0  0  0  0  0  0  0  0  0
   -1.0323    1.1709   -0.2358 C   0  0  0  0  0  0  0  0  0  0  0  0
   -2.5798   -1.1295    0.0734 C   0  0  0  0  0  0  0  0  0  0  0  0
   -2.4055    1.2787   -0.0160 C   0  0  0  0  0  0  0  0  0  0  0  0
   -3.1794    0.1283    0.1387 C   0  0  0  0  0  0  0  0  0  0  0  0
    1.2006   -0.2550   -1.6261 H   0  0  0  0  0  0  0  0  0  0  0  0
    1.5805    1.3068    0.9848 H   0  0  0  0  0  0  0  0  0  0  0  0
    1.9377    1.8002   -0.7024 H   0  0  0  0  0  0  0  0  0  0  0  0
    1.3812   -1.6311    1.1094 H   0  0  0  0  0  0  0  0  0  0  0  0
    1.6533   -2.3198   -0.5194 H   0  0  0  0  0  0  0  0  0  0  0  0
    3.8786   -1.6792    0.3204 H   0  0  0  0  0  0  0  0  0  0  0  0
   -0.7686   -2.2288   -0.2056 H   0  0  0  0  0  0  0  0  0  0  0  0
   -0.4572    2.0826   -0.3664 H   0  0  0  0  0  0  0  0  0  0  0  0
   -3.1727   -2.0333    0.1894 H   0  0  0  0  0  0  0  0  0  0  0  0
   -2.8617    2.2643    0.0296 H   0  0  0  0  0  0  0  0  0  0  0  0
   -5.0030    1.1488    0.4086 H   0  0  0  0  0  0  0  0  0  0  0  0
   -5.1293   -0.5965    0.4735 H   0  0  0  0  0  0  0  0  0  0  0  0
  1  8  2  0  0  0  0
  2  6  1  0  0  0  0
  2  8  1  0  0  0  0
  2 19  1  0  0  0  0
  3 13  1  0  0  0  0
  3 24  1  0  0  0  0
  3 25  1  0  0  0  0
  4  5  1  0  0  0  0
  4  6  1  0  0  0  0
  4  7  1  0  0  0  0
  4 14  1  0  0  0  0
  5  8  1  0  0  0  0
  5 15  1  0  0  0  0
  5 16  1  0  0  0  0
  6 17  1  0  0  0  0
  6 18  1  0  0  0  0
  7  9  2  0  0  0  0
  7 10  1  0  0  0  0
  9 11  1  0  0  0  0
  9 20  1  0  0  0  0
 10 12  2  0  0  0  0
 10 21  1  0  0  0  0
 11 13  2  0  0  0  0
 11 22  1  0  0  0  0
 12 13  1  0  0  0  0
 12 23  1  0  0  0  0
M  END
> <PUBCHEM_COMPOUND_CID>
15623770

> <PUBCHEM_CONFORMER_RMSD>
0.6

> <PUBCHEM_CONFORMER_DIVERSEORDER>
1
3
4
2

> <PUBCHEM_MMFF94_PARTIAL_CHARGES>
20
1 -0.57
10 -0.15
11 -0.15
12 -0.15
13 0.1
19 0.37
2 -0.73
20 0.15
21 0.15
22 0.15
23 0.15
24 0.4
25 0.4
3 -0.9
4 0.14
5 0.06
6 0.3
7 -0.14
8 0.57
9 -0.15

> <PUBCHEM_EFFECTIVE_ROTOR_COUNT>
1.8

> <PUBCHEM_PHARMACOPHORE_FEATURES>
6
1 1 acceptor
1 2 donor
1 3 cation
1 3 donor
5 2 4 5 6 8 rings
6 7 9 10 11 12 13 rings

> <PUBCHEM_HEAVY_ATOM_COUNT>
13

> <PUBCHEM_ATOM_DEF_STEREO_COUNT>
0

> <PUBCHEM_ATOM_UDEF_STEREO_COUNT>
1

> <PUBCHEM_BOND_DEF_STEREO_COUNT>
0

> <PUBCHEM_BOND_UDEF_STEREO_COUNT>
0

> <PUBCHEM_ISOTOPIC_ATOM_COUNT>
0

> <PUBCHEM_COMPONENT_COUNT>
1

> <PUBCHEM_CACTVS_TAUTO_COUNT>
3

> <PUBCHEM_CONFORMER_ID>
00EE665A00000001

> <PUBCHEM_MMFF94_ENERGY>
43.0519

> <PUBCHEM_FEATURE_SELFOVERLAP>
30.446

> <PUBCHEM_SHAPE_FINGERPRINT>
10608611 8 18411133598068641108
11031198 65 16630809880832230406
11062470 55 18272370875667433703
11132069 177 18410290336926582953
12251169 10 18408604777021953764
12932764 1 17417798556975561806
13214271 11 18339922718304813215
13380535 76 18411138043222720382
13581323 91 18259704492962002389
14144814 61 18409448055216767272
14325111 11 18410573950807634540
14445660 50 18342746221225643121
14993402 34 12247681565111149851
15219456 202 18340769238904562150
15442244 35 18123187905439730658
15536298 74 18341332210744464774
15775835 57 18343303682015798114
16945 1 18408327695886314927
200 152 18201708579439569535
20201158 50 18411982459588921235
20510252 161 18271528589789699833
20528008 55 18412258441566132901
20645477 70 18340763732883589575
20871998 184 18201161061077367575
23402539 116 18342449349250092933
23402655 69 18272643511912965269
23463225 33 18335421257349447588
23559900 14 18412260602161763430
2748010 2 18192712232971080053
369184 2 18410572868797603359
42 15 18187366506242309579
449060 50 18409167731465579716
5104073 3 18410012108955750515
53812653 166 18343298197574702360
69090 78 18341889688978174839
7364860 26 18270683052500071702

> <PUBCHEM_SHAPE_MULTIPOLES>
251.7
7.16
1.45
0.65
0.59
0.13
0.03
-1.07
-1.15
0.07
-0.01
-0.02
0
0.03

> <PUBCHEM_SHAPE_SELFOVERLAP>
536.79

> <PUBCHEM_SHAPE_VOLUME>
141.7

> <PUBCHEM_COORDINATE_TYPE>
2
5
10

$$$$
