165506
  -OEChem-03302302543D

 30 32  0     1  0  0  0  0  0999 V2000
    0.4817   -0.8622   -0.1565 O   0  0  0  0  0  0  0  0  0  0  0  0
    2.3223    2.8017   -0.0194 O   0  0  0  0  0  0  0  0  0  0  0  0
   -5.7716   -0.4458   -0.2500 O   0  0  0  0  0  0  0  0  0  0  0  0
   -0.1917    0.2769    0.4018 C   0  0  1  0  0  0  0  0  0  0  0  0
    0.2777    1.5702   -0.2616 C   0  0  0  0  0  0  0  0  0  0  0  0
   -1.6833    0.0841    0.2275 C   0  0  0  0  0  0  0  0  0  0  0  0
    1.7649    1.7115   -0.0664 C   0  0  0  0  0  0  0  0  0  0  0  0
    2.5318    0.4500   -0.0062 C   0  0  0  0  0  0  0  0  0  0  0  0
    1.8471   -0.7668   -0.0772 C   0  0  0  0  0  0  0  0  0  0  0  0
   -2.5075   -0.0246    1.3471 C   0  0  0  0  0  0  0  0  0  0  0  0
   -2.2318    0.0145   -1.0528 C   0  0  0  0  0  0  0  0  0  0  0  0
    3.9262    0.4714    0.0769 C   0  0  0  0  0  0  0  0  0  0  0  0
    2.5623   -1.9649   -0.0992 C   0  0  0  0  0  0  0  0  0  0  0  0
   -3.8816   -0.2031    1.1863 C   0  0  0  0  0  0  0  0  0  0  0  0
   -3.6058   -0.1638   -1.2135 C   0  0  0  0  0  0  0  0  0  0  0  0
    4.6348   -0.7307    0.0751 C   0  0  0  0  0  0  0  0  0  0  0  0
    3.9550   -1.9457   -0.0176 C   0  0  0  0  0  0  0  0  0  0  0  0
   -4.4307   -0.2727   -0.0941 C   0  0  0  0  0  0  0  0  0  0  0  0
    0.0404    0.3074    1.4768 H   0  0  0  0  0  0  0  0  0  0  0  0
   -0.2229    2.4339    0.1901 H   0  0  0  0  0  0  0  0  0  0  0  0
    0.0978    1.5813   -1.3425 H   0  0  0  0  0  0  0  0  0  0  0  0
   -2.0948    0.0276    2.3509 H   0  0  0  0  0  0  0  0  0  0  0  0
   -1.6049    0.0852   -1.9374 H   0  0  0  0  0  0  0  0  0  0  0  0
    4.4751    1.4072    0.1327 H   0  0  0  0  0  0  0  0  0  0  0  0
    2.0424   -2.9166   -0.1689 H   0  0  0  0  0  0  0  0  0  0  0  0
   -4.5191   -0.2871    2.0622 H   0  0  0  0  0  0  0  0  0  0  0  0
   -4.0210   -0.2189   -2.2162 H   0  0  0  0  0  0  0  0  0  0  0  0
    5.7192   -0.7204    0.1373 H   0  0  0  0  0  0  0  0  0  0  0  0
    4.5114   -2.8786   -0.0262 H   0  0  0  0  0  0  0  0  0  0  0  0
   -5.9775   -0.4710   -1.2003 H   0  0  0  0  0  0  0  0  0  0  0  0
  1  4  1  0  0  0  0
  1  9  1  0  0  0  0
  2  7  2  0  0  0  0
  3 18  1  0  0  0  0
  3 30  1  0  0  0  0
  4  5  1  0  0  0  0
  4  6  1  0  0  0  0
  4 19  1  0  0  0  0
  5  7  1  0  0  0  0
  5 20  1  0  0  0  0
  5 21  1  0  0  0  0
  6 10  2  0  0  0  0
  6 11  1  0  0  0  0
  7  8  1  0  0  0  0
  8  9  1  0  0  0  0
  8 12  2  0  0  0  0
  9 13  2  0  0  0  0
 10 14  1  0  0  0  0
 10 22  1  0  0  0  0
 11 15  2  0  0  0  0
 11 23  1  0  0  0  0
 12 16  1  0  0  0  0
 12 24  1  0  0  0  0
 13 17  1  0  0  0  0
 13 25  1  0  0  0  0
 14 18  2  0  0  0  0
 14 26  1  0  0  0  0
 15 18  1  0  0  0  0
 15 27  1  0  0  0  0
 16 17  2  0  0  0  0
 16 28  1  0  0  0  0
 17 29  1  0  0  0  0
M  END
> <PUBCHEM_COMPOUND_CID>
165506

> <PUBCHEM_CONFORMER_RMSD>
0.6

> <PUBCHEM_CONFORMER_DIVERSEORDER>
1
2
3
4
5
6

> <PUBCHEM_MMFF94_PARTIAL_CHARGES>
27
1 -0.36
10 -0.15
11 -0.15
12 -0.15
13 -0.15
14 -0.15
15 -0.15
16 -0.15
17 -0.15
18 0.08
2 -0.57
22 0.15
23 0.15
24 0.15
25 0.15
26 0.15
27 0.15
28 0.15
29 0.15
3 -0.53
30 0.45
4 0.42
5 0.06
6 -0.14
7 0.42
8 0.09
9 0.08

> <PUBCHEM_EFFECTIVE_ROTOR_COUNT>
1.6

> <PUBCHEM_PHARMACOPHORE_FEATURES>
6
1 1 acceptor
1 2 acceptor
1 3 donor
6 1 4 5 7 8 9 rings
6 6 10 11 14 15 18 rings
6 8 9 12 13 16 17 rings

> <PUBCHEM_HEAVY_ATOM_COUNT>
18

> <PUBCHEM_ATOM_DEF_STEREO_COUNT>
0

> <PUBCHEM_ATOM_UDEF_STEREO_COUNT>
1

> <PUBCHEM_BOND_DEF_STEREO_COUNT>
0

> <PUBCHEM_BOND_UDEF_STEREO_COUNT>
0

> <PUBCHEM_ISOTOPIC_ATOM_COUNT>
0

> <PUBCHEM_COMPONENT_COUNT>
1

> <PUBCHEM_CACTVS_TAUTO_COUNT>
4

> <PUBCHEM_CONFORMER_ID>
0002868200000001

> <PUBCHEM_MMFF94_ENERGY>
50.9934

> <PUBCHEM_FEATURE_SELFOVERLAP>
30.476

> <PUBCHEM_SHAPE_FINGERPRINT>
10366900 7 17676489432276502947
11471102 20 18409168826819253672
11615757 297 18413672417730037171
11796584 16 16515400738372011426
12236239 1 17775286071307647347
12553582 1 18341050727278059478
12670546 56 17775283859136045025
13134695 92 18409726262066692492
13140716 1 18194679496129466224
13533116 47 18343022237647041297
13862211 1 18338516340439611634
14251717 144 18411699889675222342
14252887 29 18201442424627365406
14386348 63 17821450162010884899
15375462 189 18060418006180114514
15848702 151 18341334405346100567
16945 1 18410858780707749704
17357779 13 18114733858970057580
1813 80 18129113242468810382
18186145 218 17603863399549057801
18222031 100 18343021052141440102
200 152 18272084989991379729
20279233 1 17821733827289177763
20645477 70 18334855043199775686
21065201 7 16660358203857167505
21267235 1 18341337704218808430
21641784 216 17969805011669685100
221357 26 18261383430607849525
221490 88 18263368155789769739
2255824 54 18342461490869684204
22646028 1 17989204837119901547
22646028 28 18131631184030981647
23175994 123 18113904849104779469
23402539 116 18341328873533750794
23557571 272 17095234809217980325
23559900 14 17095527313554564358
26918003 58 18408041810089182043
2748010 2 17976549626289051704
2871803 45 18187366480889367138
33824 294 18408601461866558946
42630746 31 18342173414702384256
465052 167 18341899592687716262
474 4 18057036033152393328
5104073 3 18340768139435295489
5281201 14 17967532363340517285
573450 72 17132115736696944875
602551 16 15051439561439925175
7495541 125 17968101957544944050
77492 1 17703513267850523217
9709674 26 18042691783118455275
9981440 41 17121679416707241448

> <PUBCHEM_SHAPE_MULTIPOLES>
352.82
10.04
1.83
0.96
6.18
0.7
-0.06
-3.25
0.12
-2.6
0.08
1.06
-0.04
0.01

> <PUBCHEM_SHAPE_SELFOVERLAP>
780.14

> <PUBCHEM_SHAPE_VOLUME>
188.5

> <PUBCHEM_COORDINATE_TYPE>
2
5
10

$$$$
