16770980
  -OEChem-03302302543D

 32 33  0     0  0  0  0  0  0999 V2000
   -3.8255   -1.0468   -0.7065 O   0  0  0  0  0  0  0  0  0  0  0  0
   -0.4980    1.8007    1.5786 O   0  0  0  0  0  0  0  0  0  0  0  0
   -1.5804    0.5250   -0.0527 N   0  0  0  0  0  0  0  0  0  0  0  0
    3.4947   -1.9023    0.5758 N   0  0  0  0  0  0  0  0  0  0  0  0
   -1.5476   -0.3751   -1.2118 C   0  0  0  0  0  0  0  0  0  0  0  0
   -2.9236    0.9312    0.3578 C   0  0  0  0  0  0  0  0  0  0  0  0
   -2.5154   -1.5344   -1.0065 C   0  0  0  0  0  0  0  0  0  0  0  0
   -3.8248   -0.2862    0.5047 C   0  0  0  0  0  0  0  0  0  0  0  0
   -0.4664    1.0464    0.6072 C   0  0  0  0  0  0  0  0  0  0  0  0
    0.8668    0.6805    0.1103 C   0  0  0  0  0  0  0  0  0  0  0  0
    1.5357   -0.4447    0.5923 C   0  0  0  0  0  0  0  0  0  0  0  0
    1.4630    1.4830   -0.8623 C   0  0  0  0  0  0  0  0  0  0  0  0
    2.8009   -0.7673    0.1014 C   0  0  0  0  0  0  0  0  0  0  0  0
    0.8949   -1.3059    1.6358 C   0  0  0  0  0  0  0  0  0  0  0  0
    2.7284    1.1606   -1.3530 C   0  0  0  0  0  0  0  0  0  0  0  0
    3.3973    0.0354   -0.8712 C   0  0  0  0  0  0  0  0  0  0  0  0
   -0.5441   -0.7557   -1.4107 H   0  0  0  0  0  0  0  0  0  0  0  0
   -1.8591    0.2254   -2.0746 H   0  0  0  0  0  0  0  0  0  0  0  0
   -3.3036    1.5892   -0.4326 H   0  0  0  0  0  0  0  0  0  0  0  0
   -2.8955    1.5023    1.2906 H   0  0  0  0  0  0  0  0  0  0  0  0
   -2.5806   -2.1349   -1.9192 H   0  0  0  0  0  0  0  0  0  0  0  0
   -2.1808   -2.1924   -0.1955 H   0  0  0  0  0  0  0  0  0  0  0  0
   -3.5014   -0.9265    1.3340 H   0  0  0  0  0  0  0  0  0  0  0  0
   -4.8536    0.0287    0.7049 H   0  0  0  0  0  0  0  0  0  0  0  0
    0.9515    2.3620   -1.2460 H   0  0  0  0  0  0  0  0  0  0  0  0
    0.7271   -2.3134    1.2396 H   0  0  0  0  0  0  0  0  0  0  0  0
    1.5375   -1.3696    2.5210 H   0  0  0  0  0  0  0  0  0  0  0  0
   -0.0736   -0.9412    1.9870 H   0  0  0  0  0  0  0  0  0  0  0  0
    3.1925    1.7855   -2.1103 H   0  0  0  0  0  0  0  0  0  0  0  0
    4.3827   -0.2043   -1.2625 H   0  0  0  0  0  0  0  0  0  0  0  0
    4.4107   -2.1184    0.2044 H   0  0  0  0  0  0  0  0  0  0  0  0
    3.0877   -2.5120    1.2707 H   0  0  0  0  0  0  0  0  0  0  0  0
  1  7  1  0  0  0  0
  1  8  1  0  0  0  0
  2  9  2  0  0  0  0
  3  5  1  0  0  0  0
  3  6  1  0  0  0  0
  3  9  1  0  0  0  0
  4 13  1  0  0  0  0
  4 31  1  0  0  0  0
  4 32  1  0  0  0  0
  5  7  1  0  0  0  0
  5 17  1  0  0  0  0
  5 18  1  0  0  0  0
  6  8  1  0  0  0  0
  6 19  1  0  0  0  0
  6 20  1  0  0  0  0
  7 21  1  0  0  0  0
  7 22  1  0  0  0  0
  8 23  1  0  0  0  0
  8 24  1  0  0  0  0
  9 10  1  0  0  0  0
 10 11  2  0  0  0  0
 10 12  1  0  0  0  0
 11 13  1  0  0  0  0
 11 14  1  0  0  0  0
 12 15  2  0  0  0  0
 12 25  1  0  0  0  0
 13 16  2  0  0  0  0
 14 26  1  0  0  0  0
 14 27  1  0  0  0  0
 14 28  1  0  0  0  0
 15 16  1  0  0  0  0
 15 29  1  0  0  0  0
 16 30  1  0  0  0  0
M  END
> <PUBCHEM_COMPOUND_CID>
16770980

> <PUBCHEM_CONFORMER_RMSD>
0.6

> <PUBCHEM_CONFORMER_DIVERSEORDER>
1
6
3
7
8
5
2
4

> <PUBCHEM_MMFF94_PARTIAL_CHARGES>
21
1 -0.56
10 0.09
11 -0.14
12 -0.15
13 0.1
14 0.14
15 -0.15
16 -0.15
2 -0.57
25 0.15
29 0.15
3 -0.66
30 0.15
31 0.4
32 0.4
4 -0.9
5 0.3
6 0.3
7 0.28
8 0.28
9 0.54

> <PUBCHEM_EFFECTIVE_ROTOR_COUNT>
3.2

> <PUBCHEM_PHARMACOPHORE_FEATURES>
6
1 1 acceptor
1 2 acceptor
1 4 cation
1 4 donor
6 1 3 5 6 7 8 rings
6 10 11 12 13 15 16 rings

> <PUBCHEM_HEAVY_ATOM_COUNT>
16

> <PUBCHEM_ATOM_DEF_STEREO_COUNT>
0

> <PUBCHEM_ATOM_UDEF_STEREO_COUNT>
0

> <PUBCHEM_BOND_DEF_STEREO_COUNT>
0

> <PUBCHEM_BOND_UDEF_STEREO_COUNT>
0

> <PUBCHEM_ISOTOPIC_ATOM_COUNT>
0

> <PUBCHEM_COMPONENT_COUNT>
1

> <PUBCHEM_CACTVS_TAUTO_COUNT>
1

> <PUBCHEM_CONFORMER_ID>
00FFE7A400000001

> <PUBCHEM_MMFF94_ENERGY>
56.5094

> <PUBCHEM_FEATURE_SELFOVERLAP>
30.446

> <PUBCHEM_SHAPE_FINGERPRINT>
11578080 2 18194372581561269128
11769659 78 18411133615100427414
12138202 97 15430329073780545648
12236239 1 18411145718360673492
12346177 29 16916777501310078285
13296908 3 17703784851348759185
13538477 17 18343303626223648665
13581323 91 17775284941272338661
14115302 16 18342174432150548149
14576447 43 18335702784119239838
15375462 175 17632308830189681093
15375462 189 18341901822028378713
16752209 62 18201709606037135525
16945 1 18261676003236480268
18186145 218 15936411117513664661
19422 9 18409453583119329975
200 152 18335146384096173448
20361792 2 18059565927787299973
20645477 70 18040989640255334191
21524375 3 11025791003029100893
21634736 98 18338238292113067206
21639500 275 17676777564584508196
22112679 90 18269282274469864456
232386 152 18131340921308414799
23402539 116 17968936358781237866
23402655 69 18113621157534619117
23557571 272 16988570044279132960
23559900 14 17346044372818877116
23598291 2 18261680259607261901
3060560 45 17240756324115821278
3323516 105 17530689839663215523
465052 167 18128826420685726927
474 4 18048036560575693444
568465 68 15482677913211002918
5902787 121 17775000240875512913
7364860 26 17057798791997894265
74978 22 17845084242065160117
77492 1 18411146809271882080
7832392 63 17532923909672983989
81228 2 16414092784581105145
90525 40 18340773641583598727

> <PUBCHEM_SHAPE_MULTIPOLES>
307.57
6.4
1.74
1.39
2.34
0.2
0.12
1.74
-1.46
-0.8
0.21
0.17
-0.02
-1.25

> <PUBCHEM_SHAPE_SELFOVERLAP>
647.071

> <PUBCHEM_SHAPE_VOLUME>
173.2

> <PUBCHEM_COORDINATE_TYPE>
2
5
10

$$$$
