202478
  -OEChem-03302302543D

 37 38  0     1  0  0  0  0  0999 V2000
    3.9075   -1.3456   -1.8388 O   0  0  0  0  0  0  0  0  0  0  0  0
   -2.2979    0.0673    0.2532 N   0  0  1  0  0  0  0  0  0  0  0  0
    0.0837    0.7542    0.4074 C   0  0  2  0  0  0  0  0  0  0  0  0
   -0.9070   -0.4115    0.2114 C   0  0  0  0  0  0  0  0  0  0  0  0
   -0.1559    1.8527   -0.6400 C   0  0  0  0  0  0  0  0  0  0  0  0
   -1.6228    2.2724   -0.6414 C   0  0  0  0  0  0  0  0  0  0  0  0
   -2.5477    1.0647   -0.7965 C   0  0  0  0  0  0  0  0  0  0  0  0
   -3.2291   -1.0537    0.1258 C   0  0  0  0  0  0  0  0  0  0  0  0
    1.5261    0.2812    0.4077 C   0  0  0  0  0  0  0  0  0  0  0  0
   -4.6674   -0.5689    0.2896 C   0  0  0  0  0  0  0  0  0  0  0  0
    2.0583   -0.3222   -0.7295 C   0  0  0  0  0  0  0  0  0  0  0  0
    2.3122    0.4529    1.5448 C   0  0  0  0  0  0  0  0  0  0  0  0
   -5.6554   -1.7203    0.1827 C   0  0  0  0  0  0  0  0  0  0  0  0
    3.3840   -0.7563   -0.7294 C   0  0  0  0  0  0  0  0  0  0  0  0
    3.6376    0.0188    1.5449 C   0  0  0  0  0  0  0  0  0  0  0  0
    4.1737   -0.5856    0.4078 C   0  0  0  0  0  0  0  0  0  0  0  0
   -0.1279    1.1963    1.3926 H   0  0  0  0  0  0  0  0  0  0  0  0
   -0.7154   -0.9337   -0.7355 H   0  0  0  0  0  0  0  0  0  0  0  0
   -0.7476   -1.1420    1.0156 H   0  0  0  0  0  0  0  0  0  0  0  0
    0.1105    1.5028   -1.6450 H   0  0  0  0  0  0  0  0  0  0  0  0
    0.4779    2.7234   -0.4323 H   0  0  0  0  0  0  0  0  0  0  0  0
   -1.8537    2.7970    0.2947 H   0  0  0  0  0  0  0  0  0  0  0  0
   -1.8008    2.9827   -1.4570 H   0  0  0  0  0  0  0  0  0  0  0  0
   -3.5566    1.4805   -0.7408 H   0  0  0  0  0  0  0  0  0  0  0  0
   -2.4222    0.6266   -1.7953 H   0  0  0  0  0  0  0  0  0  0  0  0
   -3.1095   -1.5616   -0.8402 H   0  0  0  0  0  0  0  0  0  0  0  0
   -3.0222   -1.7936    0.9093 H   0  0  0  0  0  0  0  0  0  0  0  0
   -4.7948   -0.0719    1.2588 H   0  0  0  0  0  0  0  0  0  0  0  0
   -4.9621    0.1400   -0.4885 H   0  0  0  0  0  0  0  0  0  0  0  0
    1.4563   -0.4629   -1.6232 H   0  0  0  0  0  0  0  0  0  0  0  0
    1.9094    0.9219    2.4383 H   0  0  0  0  0  0  0  0  0  0  0  0
   -5.5832   -2.2112   -0.7932 H   0  0  0  0  0  0  0  0  0  0  0  0
   -5.4696   -2.4695    0.9590 H   0  0  0  0  0  0  0  0  0  0  0  0
   -6.6800   -1.3547    0.3040 H   0  0  0  0  0  0  0  0  0  0  0  0
    4.2525    0.1516    2.4303 H   0  0  0  0  0  0  0  0  0  0  0  0
    5.2078   -0.9192    0.4208 H   0  0  0  0  0  0  0  0  0  0  0  0
    4.8343   -1.5824   -1.6623 H   0  0  0  0  0  0  0  0  0  0  0  0
  1 14  1  0  0  0  0
  1 37  1  0  0  0  0
  2  4  1  0  0  0  0
  2  7  1  0  0  0  0
  2  8  1  0  0  0  0
  3  4  1  0  0  0  0
  3  5  1  0  0  0  0
  3  9  1  0  0  0  0
  3 17  1  0  0  0  0
  4 18  1  0  0  0  0
  4 19  1  0  0  0  0
  5  6  1  0  0  0  0
  5 20  1  0  0  0  0
  5 21  1  0  0  0  0
  6  7  1  0  0  0  0
  6 22  1  0  0  0  0
  6 23  1  0  0  0  0
  7 24  1  0  0  0  0
  7 25  1  0  0  0  0
  8 10  1  0  0  0  0
  8 26  1  0  0  0  0
  8 27  1  0  0  0  0
  9 11  2  0  0  0  0
  9 12  1  0  0  0  0
 10 13  1  0  0  0  0
 10 28  1  0  0  0  0
 10 29  1  0  0  0  0
 11 14  1  0  0  0  0
 11 30  1  0  0  0  0
 12 15  2  0  0  0  0
 12 31  1  0  0  0  0
 13 32  1  0  0  0  0
 13 33  1  0  0  0  0
 13 34  1  0  0  0  0
 14 16  2  0  0  0  0
 15 16  1  0  0  0  0
 15 35  1  0  0  0  0
 16 36  1  0  0  0  0
M  END
> <PUBCHEM_COMPOUND_CID>
202478

> <PUBCHEM_CONFORMER_RMSD>
0.6

> <PUBCHEM_CONFORMER_DIVERSEORDER>
1
49
37
39
28
18
55
42
51
38
30
60
31
24
64
16
41
9
5
61
52
58
32
17
6
10
23
34
14
7
40
35
12
63
50
8
13
26
57
43
25
44
2
20
33
36
56
45
29
27
66
22
62
3
46
11
4
59
15
21
54
48
65
47
19
53

> <PUBCHEM_MMFF94_PARTIAL_CHARGES>
17
1 -0.53
11 -0.15
12 -0.15
14 0.08
15 -0.15
16 -0.15
2 -0.81
3 0.14
30 0.15
31 0.15
35 0.15
36 0.15
37 0.45
4 0.27
7 0.27
8 0.27
9 -0.14

> <PUBCHEM_EFFECTIVE_ROTOR_COUNT>
4.2

> <PUBCHEM_PHARMACOPHORE_FEATURES>
5
1 1 donor
1 13 hydrophobe
1 2 cation
6 2 3 4 5 6 7 rings
6 9 11 12 14 15 16 rings

> <PUBCHEM_HEAVY_ATOM_COUNT>
16

> <PUBCHEM_ATOM_DEF_STEREO_COUNT>
1

> <PUBCHEM_ATOM_UDEF_STEREO_COUNT>
0

> <PUBCHEM_BOND_DEF_STEREO_COUNT>
0

> <PUBCHEM_BOND_UDEF_STEREO_COUNT>
0

> <PUBCHEM_ISOTOPIC_ATOM_COUNT>
0

> <PUBCHEM_COMPONENT_COUNT>
1

> <PUBCHEM_CACTVS_TAUTO_COUNT>
9

> <PUBCHEM_CONFORMER_ID>
000316EE00000001

> <PUBCHEM_MMFF94_ENERGY>
27.0339

> <PUBCHEM_FEATURE_SELFOVERLAP>
25.372

> <PUBCHEM_SHAPE_FINGERPRINT>
11543360 7 14418134045565071939
11578080 2 13827562010459139874
11796584 16 17977664209057874374
12032990 46 18409165524100192353
12236239 1 17022897926584164506
12251169 10 15123791790297687561
12507560 40 17418377973986707057
12553582 1 18113904879306525315
12892183 10 16988850479614924691
13296908 3 18272928280881470348
13675066 3 17775284967553864929
13760787 5 16226051067851669185
13862211 1 18260541264867600779
14252887 29 18201719573954642362
14366163 111 12829476065833385567
14386348 63 18343865523820411618
15219456 202 17988914540528414712
15342816 4 18113897173697326594
15375462 189 15195559104939841770
15848700 24 18335979856917703343
15885798 251 18335701672054928441
16752209 62 17821720620528226929
1813 80 18334579066192894645
18222031 100 18337110167993543647
19141452 34 18131067186548983255
193927 3 18337120067940770379
200 152 16008743589400416944
20279233 1 18129648713105569700
20281475 54 18336267834110994336
20374829 77 18261106392353181331
20388580 30 17968380155846840445
20645477 70 18116715312715830183
20671657 53 17749384897282971717
20871999 31 18040155093760292333
212847 35 10087651398469195946
22096605 113 14129065819993697190
23402539 116 18040988523241641983
23402655 69 13984661451437771714
23557571 272 18410570682643789352
23559900 14 18194395598854438998
23598291 2 16661205819763357852
29717793 49 16877937213750531442
3060560 45 14201391677815742482
31174 14 17704348883845013952
314173 85 18409731772825912961
3286 77 17632585932784241234
42 15 17561370595192747115
45790113 50 16917075455380120625
465052 167 18188216519590019235
474 4 15121500468680391514
5104073 3 17987511529373748578
5352402 22 17704078386456623543
57096353 35 16950574259164013302
6049 1 18130221562900949936
621550 34 18130496522565078144
7164475 11 17313654937269572772
7615 1 16660919964057532196
77492 1 16878226342691071472

> <PUBCHEM_SHAPE_MULTIPOLES>
318.42
9.86
1.74
1.27
7
0.85
0.06
-6.44
-0.11
1.63
0.42
-1.78
-0.18
0.91

> <PUBCHEM_SHAPE_SELFOVERLAP>
652.851

> <PUBCHEM_SHAPE_VOLUME>
183.6

> <PUBCHEM_COORDINATE_TYPE>
2
5
10

$$$$
