3034756
  -OEChem-03302302553D

 49 50  0     1  0  0  0  0  0999 V2000
    3.2938    2.7717    1.2181 O   0  0  0  0  0  0  0  0  0  0  0  0
   -3.2491   -2.9737    0.1193 O   0  0  0  0  0  0  0  0  0  0  0  0
    1.7801   -3.2721    1.4982 O   0  0  0  0  0  0  0  0  0  0  0  0
    3.3029   -1.1430   -2.9013 O   0  0  0  0  0  0  0  0  0  0  0  0
   -0.0746    2.4367   -0.2955 N   0  0  0  0  0  0  0  0  0  0  0  0
    2.6509   -2.4564   -1.0438 N   0  0  0  0  0  0  0  0  0  0  0  0
   -1.3400    3.1480   -0.0909 C   0  0  2  0  0  0  0  0  0  0  0  0
   -2.4366    2.5044   -0.9589 C   0  0  0  0  0  0  0  0  0  0  0  0
    0.9594    2.9718    0.5744 C   0  0  0  0  0  0  0  0  0  0  0  0
    2.2866    2.2333    0.3626 C   0  0  2  0  0  0  0  0  0  0  0  0
   -1.1210    4.6242   -0.4223 C   0  0  0  0  0  0  0  0  0  0  0  0
   -2.6538    1.0383   -0.6701 C   0  0  0  0  0  0  0  0  0  0  0  0
    2.1527    0.7561    0.6611 C   0  0  0  0  0  0  0  0  0  0  0  0
    2.4625   -0.1640   -0.3255 C   0  0  0  0  0  0  0  0  0  0  0  0
   -3.5785    0.6662    0.2923 C   0  0  0  0  0  0  0  0  0  0  0  0
   -1.9251    0.0927   -1.3733 C   0  0  0  0  0  0  0  0  0  0  0  0
    1.7236    0.3567    1.9150 C   0  0  0  0  0  0  0  0  0  0  0  0
    2.3393   -1.5257   -0.0496 C   0  0  0  0  0  0  0  0  0  0  0  0
    1.6006   -1.0051    2.1908 C   0  0  0  0  0  0  0  0  0  0  0  0
   -3.7798   -0.6882    0.5588 C   0  0  0  0  0  0  0  0  0  0  0  0
   -2.1266   -1.2616   -1.1068 C   0  0  0  0  0  0  0  0  0  0  0  0
    1.9085   -1.9464    1.2085 C   0  0  0  0  0  0  0  0  0  0  0  0
   -3.0540   -1.6520   -0.1407 C   0  0  0  0  0  0  0  0  0  0  0  0
    3.0903   -2.2083   -2.3394 C   0  0  0  0  0  0  0  0  0  0  0  0
   -4.2121   -3.3035    1.1190 C   0  0  0  0  0  0  0  0  0  0  0  0
   -1.6462    3.0592    0.9599 H   0  0  0  0  0  0  0  0  0  0  0  0
   -3.3824    3.0430   -0.8111 H   0  0  0  0  0  0  0  0  0  0  0  0
   -2.1999    2.6311   -2.0247 H   0  0  0  0  0  0  0  0  0  0  0  0
    1.1739    4.0254    0.3645 H   0  0  0  0  0  0  0  0  0  0  0  0
    0.6536    2.9301    1.6272 H   0  0  0  0  0  0  0  0  0  0  0  0
    0.2172    2.5131   -1.2695 H   0  0  0  0  0  0  0  0  0  0  0  0
    2.6313    2.3865   -0.6677 H   0  0  0  0  0  0  0  0  0  0  0  0
   -0.5706    5.1557    0.3601 H   0  0  0  0  0  0  0  0  0  0  0  0
   -0.6040    4.7619   -1.3790 H   0  0  0  0  0  0  0  0  0  0  0  0
   -2.0885    5.1334   -0.5064 H   0  0  0  0  0  0  0  0  0  0  0  0
    2.7898    0.2234   -1.2795 H   0  0  0  0  0  0  0  0  0  0  0  0
   -4.1463    1.4106    0.8433 H   0  0  0  0  0  0  0  0  0  0  0  0
   -1.2036    0.3833   -2.1314 H   0  0  0  0  0  0  0  0  0  0  0  0
    1.4917    1.0734    2.6967 H   0  0  0  0  0  0  0  0  0  0  0  0
    3.3762    3.7189    1.0141 H   0  0  0  0  0  0  0  0  0  0  0  0
    1.2664   -1.3262    3.1737 H   0  0  0  0  0  0  0  0  0  0  0  0
   -4.5144   -0.9215    1.3219 H   0  0  0  0  0  0  0  0  0  0  0  0
   -1.5575   -2.0078   -1.6546 H   0  0  0  0  0  0  0  0  0  0  0  0
    2.5720   -3.4389   -0.8045 H   0  0  0  0  0  0  0  0  0  0  0  0
    1.7246   -3.7906    0.6814 H   0  0  0  0  0  0  0  0  0  0  0  0
    3.2485   -3.1659   -2.8648 H   0  0  0  0  0  0  0  0  0  0  0  0
   -3.9178   -2.9217    2.1025 H   0  0  0  0  0  0  0  0  0  0  0  0
   -4.2383   -4.3955    1.1949 H   0  0  0  0  0  0  0  0  0  0  0  0
   -5.2179   -2.9787    0.8316 H   0  0  0  0  0  0  0  0  0  0  0  0
  1 10  1  0  0  0  0
  1 40  1  0  0  0  0
  2 23  1  0  0  0  0
  2 25  1  0  0  0  0
  3 22  1  0  0  0  0
  3 45  1  0  0  0  0
  4 24  2  0  0  0  0
  5  7  1  0  0  0  0
  5  9  1  0  0  0  0
  5 31  1  0  0  0  0
  6 18  1  0  0  0  0
  6 24  1  0  0  0  0
  6 44  1  0  0  0  0
  7  8  1  0  0  0  0
  7 11  1  0  0  0  0
  7 26  1  0  0  0  0
  8 12  1  0  0  0  0
  8 27  1  0  0  0  0
  8 28  1  0  0  0  0
  9 10  1  0  0  0  0
  9 29  1  0  0  0  0
  9 30  1  0  0  0  0
 10 13  1  0  0  0  0
 10 32  1  0  0  0  0
 11 33  1  0  0  0  0
 11 34  1  0  0  0  0
 11 35  1  0  0  0  0
 12 15  2  0  0  0  0
 12 16  1  0  0  0  0
 13 14  2  0  0  0  0
 13 17  1  0  0  0  0
 14 18  1  0  0  0  0
 14 36  1  0  0  0  0
 15 20  1  0  0  0  0
 15 37  1  0  0  0  0
 16 21  2  0  0  0  0
 16 38  1  0  0  0  0
 17 19  2  0  0  0  0
 17 39  1  0  0  0  0
 18 22  2  0  0  0  0
 19 22  1  0  0  0  0
 19 41  1  0  0  0  0
 20 23  2  0  0  0  0
 20 42  1  0  0  0  0
 21 23  1  0  0  0  0
 21 43  1  0  0  0  0
 24 46  1  0  0  0  0
 25 47  1  0  0  0  0
 25 48  1  0  0  0  0
 25 49  1  0  0  0  0
M  END
> <PUBCHEM_COMPOUND_CID>
3034756

> <PUBCHEM_CONFORMER_RMSD>
1

> <PUBCHEM_CONFORMER_DIVERSEORDER>
4
96
14
77
111
19
41
73
113
109
84
33
78
72
45
83
23
27
28
53
112
99
68
62
87
90
25
92
70
2
3
29
71
48
49
97
34
42
91
74
54
88
61
39
110
81
21
89
32
105
103
100
8
106
47
104
102
15
50
1
86
114
52
55
11
20
94
95
93
80
67
10
43
12
51
26
57
18
40
30
75
98
66
65
107
63
56
69
64
36
22
38
13
59
58
31
60
108
7
76
82
5
37
35
115
17
16
79
44
85
101
9
24
46
6

> <PUBCHEM_MMFF94_PARTIAL_CHARGES>
36
1 -0.68
10 0.42
12 -0.14
13 -0.14
14 -0.15
15 -0.15
16 -0.15
17 -0.15
18 0.12
19 -0.15
2 -0.36
20 -0.15
21 -0.15
22 0.08
23 0.08
24 0.57
25 0.28
3 -0.53
31 0.36
36 0.15
37 0.15
38 0.15
39 0.15
4 -0.57
40 0.4
41 0.15
42 0.15
43 0.15
44 0.37
45 0.45
46 0.06
5 -0.9
6 -0.55
7 0.27
8 0.14
9 0.27

> <PUBCHEM_EFFECTIVE_ROTOR_COUNT>
9

> <PUBCHEM_PHARMACOPHORE_FEATURES>
10
1 1 acceptor
1 1 donor
1 2 acceptor
1 3 donor
1 4 acceptor
1 5 cation
1 5 donor
1 6 donor
6 12 15 16 20 21 23 rings
6 13 14 17 18 19 22 rings

> <PUBCHEM_HEAVY_ATOM_COUNT>
25

> <PUBCHEM_ATOM_DEF_STEREO_COUNT>
2

> <PUBCHEM_ATOM_UDEF_STEREO_COUNT>
0

> <PUBCHEM_BOND_DEF_STEREO_COUNT>
0

> <PUBCHEM_BOND_UDEF_STEREO_COUNT>
0

> <PUBCHEM_ISOTOPIC_ATOM_COUNT>
0

> <PUBCHEM_COMPONENT_COUNT>
1

> <PUBCHEM_CACTVS_TAUTO_COUNT>
6

> <PUBCHEM_CONFORMER_ID>
002E4E8400000004

> <PUBCHEM_MMFF94_ENERGY>
72.796

> <PUBCHEM_FEATURE_SELFOVERLAP>
50.75

> <PUBCHEM_SHAPE_FINGERPRINT>
10006869 2 16246588119449881370
11112662 9 17331963227401054711
11513181 2 16468700433465049790
12156800 1 16317890989191792819
12422481 6 17771592777944591874
12553582 1 18336531803128346417
12596599 1 18412553127999533155
13122387 1 18336251367480733747
13726171 33 17910978850218412780
13773456 22 17907622242470170807
13941206 138 16897109144537694511
14251757 5 18052838952318405710
14932701 244 18195557864265429188
15664445 248 18192434293174706781
16752209 62 17905880380076427021
19319366 153 17461452321078073227
20600515 1 17334189262307447696
20905425 154 18263911280337507632
21197605 99 16460239700201190923
2818148 4 18124910973151454581
3117164 225 18265074569005378883
394071 54 18050013487394509331
5283178 26 17630900291586314183
5309563 4 17830723611036822833
6287921 2 17912095141871756091
6823239 73 18412268345528940191
70634741 139 17695929739203436566

> <PUBCHEM_SHAPE_MULTIPOLES>
481.05
7.01
5.33
1.98
3.03
2.97
0.66
-4.5
0.5
1.62
-0.41
-2.2
-1.34
2.24

> <PUBCHEM_SHAPE_SELFOVERLAP>
1006.443

> <PUBCHEM_SHAPE_VOLUME>
270.7

> <PUBCHEM_COORDINATE_TYPE>
2
5
10

$$$$
