44562783
  -OEChem-03302302553D

 50 55  0     1  0  0  0  0  0999 V2000
   -4.1336   -1.5751   -1.5485 O   0  0  0  0  0  0  0  0  0  0  0  0
   -2.5945   -0.1740    1.1951 N   0  0  2  0  0  0  0  0  0  0  0  0
   -1.8385   -1.4386   -1.2081 N   0  0  0  0  0  0  0  0  0  0  0  0
    2.7173    1.5075    0.1414 N   0  0  0  0  0  0  0  0  0  0  0  0
   -0.8287   -0.7093   -0.4247 C   0  0  1  0  0  0  0  0  0  0  0  0
   -0.8949    0.7961   -0.8972 C   0  0  1  0  0  0  0  0  0  0  0  0
   -3.2111    0.1823   -0.0966 C   0  0  2  0  0  0  0  0  0  0  0  0
   -2.3651    1.2901   -0.7480 C   0  0  0  0  0  0  0  0  0  0  0  0
    0.2143    1.7587   -0.3049 C   0  0  0  0  0  0  0  0  0  0  0  0
   -1.3049   -0.8608    1.0443 C   0  0  0  0  0  0  0  0  0  0  0  0
    0.5610   -1.3334   -0.6578 C   0  0  0  0  0  0  0  0  0  0  0  0
   -4.6192    0.5975    0.3030 C   0  0  0  0  0  0  0  0  0  0  0  0
   -3.1618   -1.0433   -1.0273 C   0  0  0  0  0  0  0  0  0  0  0  0
   -3.6048   -0.8958    1.9556 C   0  0  0  0  0  0  0  0  0  0  0  0
    1.4969    0.9658   -0.1714 C   0  0  0  0  0  0  0  0  0  0  0  0
   -4.8929   -0.1535    1.6114 C   0  0  0  0  0  0  0  0  0  0  0  0
    1.6631   -0.3997   -0.2992 C   0  0  0  0  0  0  0  0  0  0  0  0
    0.4164    2.9232   -1.3020 C   0  0  0  0  0  0  0  0  0  0  0  0
   -0.1256    2.3792    1.0684 C   0  0  0  0  0  0  0  0  0  0  0  0
    3.0372   -0.6929   -0.0575 C   0  0  0  0  0  0  0  0  0  0  0  0
    3.6725    0.5197    0.2174 C   0  0  0  0  0  0  0  0  0  0  0  0
    3.8056   -1.8752   -0.0482 C   0  0  0  0  0  0  0  0  0  0  0  0
    5.0390    0.6091    0.5056 C   0  0  0  0  0  0  0  0  0  0  0  0
    5.1735   -1.8011    0.2380 C   0  0  0  0  0  0  0  0  0  0  0  0
    5.7788   -0.5765    0.5112 C   0  0  0  0  0  0  0  0  0  0  0  0
   -0.7072    0.7571   -1.9838 H   0  0  0  0  0  0  0  0  0  0  0  0
   -2.4416    2.2214   -0.1831 H   0  0  0  0  0  0  0  0  0  0  0  0
   -2.7634    1.5161   -1.7465 H   0  0  0  0  0  0  0  0  0  0  0  0
   -1.4006   -1.9298    1.2818 H   0  0  0  0  0  0  0  0  0  0  0  0
   -0.5811   -0.4571    1.7565 H   0  0  0  0  0  0  0  0  0  0  0  0
    0.6788   -1.5899   -1.7195 H   0  0  0  0  0  0  0  0  0  0  0  0
    0.6555   -2.2734   -0.1005 H   0  0  0  0  0  0  0  0  0  0  0  0
   -5.3746    0.3532   -0.4507 H   0  0  0  0  0  0  0  0  0  0  0  0
   -4.6824    1.6759    0.4929 H   0  0  0  0  0  0  0  0  0  0  0  0
   -1.5989   -2.2271   -1.8015 H   0  0  0  0  0  0  0  0  0  0  0  0
   -3.4026   -0.8748    3.0309 H   0  0  0  0  0  0  0  0  0  0  0  0
   -3.6896   -1.9428    1.6394 H   0  0  0  0  0  0  0  0  0  0  0  0
   -5.7311   -0.8498    1.5025 H   0  0  0  0  0  0  0  0  0  0  0  0
   -5.1528    0.5619    2.4003 H   0  0  0  0  0  0  0  0  0  0  0  0
    1.1642    3.6401   -0.9431 H   0  0  0  0  0  0  0  0  0  0  0  0
    0.7613    2.5598   -2.2774 H   0  0  0  0  0  0  0  0  0  0  0  0
   -0.5169    3.4751   -1.4599 H   0  0  0  0  0  0  0  0  0  0  0  0
   -0.3095    1.6280    1.8380 H   0  0  0  0  0  0  0  0  0  0  0  0
    0.7041    2.9966    1.4361 H   0  0  0  0  0  0  0  0  0  0  0  0
   -0.9947    3.0413    1.0256 H   0  0  0  0  0  0  0  0  0  0  0  0
    2.8932    2.4897    0.3018 H   0  0  0  0  0  0  0  0  0  0  0  0
    3.3480   -2.8376   -0.2592 H   0  0  0  0  0  0  0  0  0  0  0  0
    5.5115    1.5625    0.7171 H   0  0  0  0  0  0  0  0  0  0  0  0
    5.7689   -2.7102    0.2470 H   0  0  0  0  0  0  0  0  0  0  0  0
    6.8427   -0.5411    0.7312 H   0  0  0  0  0  0  0  0  0  0  0  0
  1 13  2  0  0  0  0
  2  7  1  0  0  0  0
  2 10  1  0  0  0  0
  2 14  1  0  0  0  0
  3  5  1  0  0  0  0
  3 13  1  0  0  0  0
  3 35  1  0  0  0  0
  4 15  1  0  0  0  0
  4 21  1  0  0  0  0
  4 46  1  0  0  0  0
  5  6  1  0  0  0  0
  5 10  1  0  0  0  0
  5 11  1  0  0  0  0
  6  8  1  0  0  0  0
  6  9  1  0  0  0  0
  6 26  1  0  0  0  0
  7  8  1  0  0  0  0
  7 12  1  0  0  0  0
  7 13  1  0  0  0  0
  8 27  1  0  0  0  0
  8 28  1  0  0  0  0
  9 15  1  0  0  0  0
  9 18  1  0  0  0  0
  9 19  1  0  0  0  0
 10 29  1  0  0  0  0
 10 30  1  0  0  0  0
 11 17  1  0  0  0  0
 11 31  1  0  0  0  0
 11 32  1  0  0  0  0
 12 16  1  0  0  0  0
 12 33  1  0  0  0  0
 12 34  1  0  0  0  0
 14 16  1  0  0  0  0
 14 36  1  0  0  0  0
 14 37  1  0  0  0  0
 15 17  2  0  0  0  0
 16 38  1  0  0  0  0
 16 39  1  0  0  0  0
 17 20  1  0  0  0  0
 18 40  1  0  0  0  0
 18 41  1  0  0  0  0
 18 42  1  0  0  0  0
 19 43  1  0  0  0  0
 19 44  1  0  0  0  0
 19 45  1  0  0  0  0
 20 21  1  0  0  0  0
 20 22  2  0  0  0  0
 21 23  2  0  0  0  0
 22 24  1  0  0  0  0
 22 47  1  0  0  0  0
 23 25  1  0  0  0  0
 23 48  1  0  0  0  0
 24 25  2  0  0  0  0
 24 49  1  0  0  0  0
 25 50  1  0  0  0  0
M  END
> <PUBCHEM_COMPOUND_CID>
44562783

> <PUBCHEM_CONFORMER_RMSD>
0.6

> <PUBCHEM_CONFORMER_DIVERSEORDER>
1

> <PUBCHEM_MMFF94_PARTIAL_CHARGES>
24
1 -0.57
10 0.27
11 0.18
13 0.57
14 0.27
15 -0.33
17 -0.18
2 -0.81
21 -0.15
22 -0.15
23 -0.15
24 -0.15
25 -0.15
3 -0.73
35 0.37
4 0.03
46 0.27
47 0.15
48 0.15
49 0.15
5 0.3
50 0.15
7 0.33
9 0.18

> <PUBCHEM_EFFECTIVE_ROTOR_COUNT>
1.6

> <PUBCHEM_PHARMACOPHORE_FEATURES>
11
1 1 acceptor
1 2 cation
1 3 donor
1 4 cation
1 4 donor
3 9 18 19 hydrophobe
5 2 7 12 14 16 rings
5 4 15 17 20 21 rings
6 20 21 22 23 24 25 rings
6 5 6 9 11 15 17 rings
8 2 3 5 6 7 8 10 13 rings

> <PUBCHEM_HEAVY_ATOM_COUNT>
25

> <PUBCHEM_ATOM_DEF_STEREO_COUNT>
3

> <PUBCHEM_ATOM_UDEF_STEREO_COUNT>
0

> <PUBCHEM_BOND_DEF_STEREO_COUNT>
0

> <PUBCHEM_BOND_UDEF_STEREO_COUNT>
0

> <PUBCHEM_ISOTOPIC_ATOM_COUNT>
0

> <PUBCHEM_COMPONENT_COUNT>
1

> <PUBCHEM_CACTVS_TAUTO_COUNT>
2

> <PUBCHEM_CONFORMER_ID>
02A7F95F00000001

> <PUBCHEM_MMFF94_ENERGY>
84.3094

> <PUBCHEM_FEATURE_SELFOVERLAP>
56.109

> <PUBCHEM_SHAPE_FINGERPRINT>
10 15 18335410293543127264
10062212 137 18059572533599949551
11552529 35 16987983024859642534
11578080 2 17701789216254270297
11796584 16 17022617563787946514
12011746 2 17749103383978167365
12107183 9 17411913773339207634
12236239 1 17846778520231615399
12403814 3 18412824668695665117
12422481 6 18128546954856340330
12553582 1 18408893953370788158
12596602 18 17132109182598255818
12633257 1 17346601867678373592
12714826 92 17603861178634338644
12760667 363 18262231115360221154
12788726 201 18044645417538736616
13140716 1 18341051929789845954
13224815 77 18411697677940962958
13544653 18 18408322189933602116
13675066 3 18334295370375076912
13782708 43 16950290654015711771
13965767 371 16767089837780410209
14068700 675 16915351494721375215
14341114 328 17131838672435350306
14386348 63 17967818245069678882
14790565 3 17760371393947198348
14840074 17 18342746221484132190
14955137 171 18198925723487699017
15196674 1 18413100659036042756
15209289 33 18114185237238356587
15209294 21 17561089089808309075
15238133 3 17969521337389883365
15537594 2 18412833482216820878
15788980 27 18335137587776388862
16945 1 18189622811671964821
17349148 13 18343023315114224058
17980427 23 15985385607757261849
1813 80 18335998496880778164
19141452 34 18344144795515757991
200 152 18271798034209274518
20261772 1 18343022181575245246
20511986 3 17846201259410058787
20600515 1 17822590338135929199
20739085 24 18337124422626210220
20775438 99 13266944434901946881
21033648 29 18271793597487303552
21267235 1 18411702093019968622
22182313 1 18126010364367107556
23175994 123 17967818253617337365
23184049 59 18342183262418633894
23402539 116 18411130325234769046
23559900 14 17675927616600616428
25147074 1 18057608866083343439
26918003 58 18113338600410512698
3286 77 17489011773280421384
34797466 226 15647349528347576030
3633792 109 17345192195588768365
392239 28 17988346149236513040
5104073 3 18130502028549771034
542803 24 16630525133428193050
56633871 153 18200878361692267990
9709674 26 18335420111231866182

> <PUBCHEM_SHAPE_MULTIPOLES>
493.68
10.65
2.24
1.36
6.68
1.18
0.2
-4.32
2.9
0.72
-0.42
-1.72
-0.18
-0.02

> <PUBCHEM_SHAPE_SELFOVERLAP>
1120.008

> <PUBCHEM_SHAPE_VOLUME>
258.3

> <PUBCHEM_COORDINATE_TYPE>
2
5
10

$$$$
