46244454
  -OEChem-03302302553D

 53 57  0     1  0  0  0  0  0999 V2000
    2.3224   -3.3441    1.0940 S   0  0  0  0  0  0  0  0  0  0  0  0
    3.0723   -2.3133    1.8043 O   0  0  0  0  0  0  0  0  0  0  0  0
    2.9107   -4.6588    0.8600 O   0  0  0  0  0  0  0  0  0  0  0  0
    2.9986    4.6722   -0.1970 O   0  0  0  0  0  0  0  0  0  0  0  0
   -0.2618   -1.4402   -0.5804 N   0  0  0  0  0  0  0  0  0  0  0  0
    1.7083    2.1827   -0.3990 N   0  0  0  0  0  0  0  0  0  0  0  0
   -0.3182    0.9684   -0.5230 N   0  0  0  0  0  0  0  0  0  0  0  0
   -4.9678    0.8693    1.4418 N   0  0  0  0  0  0  0  0  0  0  0  0
    1.8327   -2.6634   -0.5129 C   0  0  0  0  0  0  0  0  0  0  0  0
    2.8324   -3.0036   -1.5788 C   0  0  0  0  0  0  0  0  0  0  0  0
    1.5352   -3.7536   -1.5002 C   0  0  0  0  0  0  0  0  0  0  0  0
    1.0842   -1.3734   -0.5160 C   0  0  0  0  0  0  0  0  0  0  0  0
    0.7847   -3.5865    1.9592 C   0  0  0  0  0  0  0  0  0  0  0  0
    1.7908   -0.1896   -0.4536 C   0  0  0  0  0  0  0  0  0  0  0  0
    1.0296    0.9614   -0.4605 C   0  0  0  0  0  0  0  0  0  0  0  0
   -0.8906   -0.2493   -0.5799 C   0  0  0  0  0  0  0  0  0  0  0  0
    2.6788    2.4203    0.6885 C   0  0  1  0  0  0  0  0  0  0  0  0
    1.1280    3.3723   -1.0347 C   0  0  0  0  0  0  0  0  0  0  0  0
    3.6764    3.4988    0.2513 C   0  0  0  0  0  0  0  0  0  0  0  0
   -2.3282   -0.2810   -0.6477 C   0  0  0  0  0  0  0  0  0  0  0  0
    2.2209    4.3842   -1.3568 C   0  0  0  0  0  0  0  0  0  0  0  0
    1.9465    2.8298    1.9710 C   0  0  0  0  0  0  0  0  0  0  0  0
   -3.0848    0.2905    0.3945 C   0  0  0  0  0  0  0  0  0  0  0  0
   -2.9922   -0.8687   -1.7306 C   0  0  0  0  0  0  0  0  0  0  0  0
   -4.4783    0.2518    0.3128 C   0  0  0  0  0  0  0  0  0  0  0  0
   -2.7560    0.9524    1.6106 C   0  0  0  0  0  0  0  0  0  0  0  0
   -4.3845   -0.8927   -1.7855 C   0  0  0  0  0  0  0  0  0  0  0  0
   -5.1557   -0.3320   -0.7635 C   0  0  0  0  0  0  0  0  0  0  0  0
   -3.9344    1.2961    2.2321 C   0  0  0  0  0  0  0  0  0  0  0  0
    2.9587   -2.3217   -2.4132 H   0  0  0  0  0  0  0  0  0  0  0  0
    3.7438   -3.5309   -1.3253 H   0  0  0  0  0  0  0  0  0  0  0  0
    1.5627   -4.7956   -1.2086 H   0  0  0  0  0  0  0  0  0  0  0  0
    0.8068   -3.5620   -2.2819 H   0  0  0  0  0  0  0  0  0  0  0  0
    1.0094   -4.0477    2.9233 H   0  0  0  0  0  0  0  0  0  0  0  0
    0.3048   -2.6190    2.1143 H   0  0  0  0  0  0  0  0  0  0  0  0
    0.1491   -4.2480    1.3680 H   0  0  0  0  0  0  0  0  0  0  0  0
    2.8737   -0.1830   -0.4269 H   0  0  0  0  0  0  0  0  0  0  0  0
    3.2619    1.5197    0.9113 H   0  0  0  0  0  0  0  0  0  0  0  0
    0.6105    3.1065   -1.9642 H   0  0  0  0  0  0  0  0  0  0  0  0
    0.3920    3.8184   -0.3555 H   0  0  0  0  0  0  0  0  0  0  0  0
    4.3254    3.1288   -0.5524 H   0  0  0  0  0  0  0  0  0  0  0  0
    4.3251    3.7841    1.0863 H   0  0  0  0  0  0  0  0  0  0  0  0
    2.8782    4.0192   -2.1555 H   0  0  0  0  0  0  0  0  0  0  0  0
    1.7713    5.3203   -1.7028 H   0  0  0  0  0  0  0  0  0  0  0  0
    1.2458    2.0496    2.2877 H   0  0  0  0  0  0  0  0  0  0  0  0
    2.6598    2.9888    2.7867 H   0  0  0  0  0  0  0  0  0  0  0  0
    1.3745    3.7545    1.8419 H   0  0  0  0  0  0  0  0  0  0  0  0
   -2.4283   -1.3136   -2.5478 H   0  0  0  0  0  0  0  0  0  0  0  0
   -1.7678    1.1575    1.9992 H   0  0  0  0  0  0  0  0  0  0  0  0
   -4.8799   -1.3538   -2.6362 H   0  0  0  0  0  0  0  0  0  0  0  0
   -6.2395   -0.3510   -0.8073 H   0  0  0  0  0  0  0  0  0  0  0  0
   -5.9482    0.9896    1.6554 H   0  0  0  0  0  0  0  0  0  0  0  0
   -4.1292    1.8052    3.1655 H   0  0  0  0  0  0  0  0  0  0  0  0
  1  2  2  0  0  0  0
  1  3  2  0  0  0  0
  1  9  1  0  0  0  0
  1 13  1  0  0  0  0
  4 19  1  0  0  0  0
  4 21  1  0  0  0  0
  5 12  1  0  0  0  0
  5 16  2  0  0  0  0
  6 15  1  0  0  0  0
  6 17  1  0  0  0  0
  6 18  1  0  0  0  0
  7 15  2  0  0  0  0
  7 16  1  0  0  0  0
  8 25  1  0  0  0  0
  8 29  1  0  0  0  0
  8 52  1  0  0  0  0
  9 10  1  0  0  0  0
  9 11  1  0  0  0  0
  9 12  1  0  0  0  0
 10 11  1  0  0  0  0
 10 30  1  0  0  0  0
 10 31  1  0  0  0  0
 11 32  1  0  0  0  0
 11 33  1  0  0  0  0
 12 14  2  0  0  0  0
 13 34  1  0  0  0  0
 13 35  1  0  0  0  0
 13 36  1  0  0  0  0
 14 15  1  0  0  0  0
 14 37  1  0  0  0  0
 16 20  1  0  0  0  0
 17 19  1  0  0  0  0
 17 22  1  0  0  0  0
 17 38  1  0  0  0  0
 18 21  1  0  0  0  0
 18 39  1  0  0  0  0
 18 40  1  0  0  0  0
 19 41  1  0  0  0  0
 19 42  1  0  0  0  0
 20 23  2  0  0  0  0
 20 24  1  0  0  0  0
 21 43  1  0  0  0  0
 21 44  1  0  0  0  0
 22 45  1  0  0  0  0
 22 46  1  0  0  0  0
 22 47  1  0  0  0  0
 23 25  1  0  0  0  0
 23 26  1  0  0  0  0
 24 27  2  0  0  0  0
 24 48  1  0  0  0  0
 25 28  2  0  0  0  0
 26 29  2  0  0  0  0
 26 49  1  0  0  0  0
 27 28  1  0  0  0  0
 27 50  1  0  0  0  0
 28 51  1  0  0  0  0
 29 53  1  0  0  0  0
M  END
> <PUBCHEM_COMPOUND_CID>
46244454

> <PUBCHEM_CONFORMER_RMSD>
0.8

> <PUBCHEM_CONFORMER_DIVERSEORDER>
1
285
246
137
12
268
202
248
138
250
249
265
218
147
258
172
136
286
276
252
115
222
289
211
128
231
214
220
57
165
198
288
15
271
229
157
37
141
130
182
290
158
221
247
123
101
233
210
108
83
269
171
203
226
208
205
235
166
99
148
291
89
41
272
146
50
283
224
181
135
60
240
144
55
284
287
251
228
9
262
266
277
245
168
36
103
253
52
190
177
201
51
274
191
88
122
106
261
219
237
195
75
213
58
84
155
156
95
281
139
161
267
77
90
255
212
174
79
159
263
244
216
107
278
199
178
46
85
142
82
100
150
192
234
279
217
186
257
180
209
175
185
197
207
242
187
110
124
104
98
119
254
215
121
3
259
169
236
40
292
176
70
132
173
151
96
113
264
47
129
127
114
153
39
17
260
160
61
143
230
282
27
183
189
118
256
125
20
270
204
120
227
188
30
24
73
273
72
45
74
164
53
59
94
239
179
87
93
48
91
111
63
140
280
92
196
275
200
32
163
54
167
35
241
28
238
133
78
225
149
7
152
194
56
232
80
109
76
223
112
117
43
154
49
131
134
14
193
81
13
33
145
206
4
102
64
116
2
97
22
62
105
42
26
162
10
170
67
71
184
44
23
5
243
86
68
21
126
25
38
8
16
11
29
19
65
31
34
66
6
69
18

> <PUBCHEM_MMFF94_PARTIAL_CHARGES>
37
1 1.17
10 -0.2
11 -0.2
12 0.28
13 0.11
14 -0.15
15 0.41
16 0.62
17 0.37
18 0.37
19 0.28
2 -0.65
21 0.28
24 -0.15
25 -0.15
26 -0.15
27 -0.15
28 -0.15
29 -0.3
3 -0.65
30 0.1
31 0.1
32 0.1
33 0.1
37 0.15
4 -0.56
48 0.15
49 0.15
5 -0.62
50 0.15
51 0.15
52 0.27
53 0.15
6 -0.84
7 -0.62
8 0.03
9 0.05

> <PUBCHEM_EFFECTIVE_ROTOR_COUNT>
5.8

> <PUBCHEM_PHARMACOPHORE_FEATURES>
11
1 2 acceptor
1 3 acceptor
1 4 acceptor
1 8 cation
1 8 donor
3 5 7 16 cation
3 6 7 15 cation
5 8 23 25 26 29 rings
6 20 23 24 25 27 28 rings
6 4 6 17 18 19 21 rings
6 5 7 12 14 15 16 rings

> <PUBCHEM_HEAVY_ATOM_COUNT>
29

> <PUBCHEM_ATOM_DEF_STEREO_COUNT>
1

> <PUBCHEM_ATOM_UDEF_STEREO_COUNT>
0

> <PUBCHEM_BOND_DEF_STEREO_COUNT>
0

> <PUBCHEM_BOND_UDEF_STEREO_COUNT>
0

> <PUBCHEM_ISOTOPIC_ATOM_COUNT>
0

> <PUBCHEM_COMPONENT_COUNT>
1

> <PUBCHEM_CACTVS_TAUTO_COUNT>
3

> <PUBCHEM_CONFORMER_ID>
02C1A26600000001

> <PUBCHEM_MMFF94_ENERGY>
82.0005

> <PUBCHEM_FEATURE_SELFOVERLAP>
56.069

> <PUBCHEM_SHAPE_FINGERPRINT>
10940486 97 17775005630991437815
11049842 53 16557649429867116399
11578080 2 17678446472647795596
12160290 23 16965761542568975934
12549972 3 17604146996540520393
12553582 1 18121787123294690295
12788726 201 17398407333637702986
12977781 61 17313932143619185907
13140716 1 18265336281898387566
133893 2 18411409614278685399
13540713 5 17989491814761958829
13583140 156 16445857890535869573
13965767 371 16331624804467248163
14844126 61 17326597116699572779
14955137 171 17911829906245571615
15842332 3 17989490719328968765
17980427 23 17416669264355752837
1813 80 18196373606776522039
19319366 153 17982998244775019319
20642791 268 18130784499710493322
20739085 24 18270397175012947630
21033650 10 17126807422975739732
2132832 1 18058433328185078149
21796203 349 17979107940090593587
2255824 54 18412548733862815318
23366157 5 18409733958542195549
23558518 356 17906165514687033878
23559900 14 16557919918248918349
23569917 315 18124309669515198390
23598288 3 17182229015395672422
244849 19 17749389235838055517
283562 15 17690842680615319519
3091708 16 9111906301289524204
3380486 145 17979615862975168118
35225 105 17471004156440008578
352729 6 17474672135899272796
394222 165 18272375312242264451
4058900 60 18263087776304214469
4409770 3 17113825085411060077
474 4 18267024032326645333
6086070 43 18045780079932950801
7097593 13 18130231432914747967
79837 15 17906457975767918800
90316 7 17836081169994779495
9841814 1 18263643974320944667
9981440 41 18126566962259050761

> <PUBCHEM_SHAPE_MULTIPOLES>
563.12
8.3
6.51
2.01
11.72
0.37
-0.67
2.09
-0.82
-12.08
-0.18
0.69
-0.49
-1.8

> <PUBCHEM_SHAPE_SELFOVERLAP>
1220.883

> <PUBCHEM_SHAPE_VOLUME>
312.7

> <PUBCHEM_COORDINATE_TYPE>
2
5
10

$$$$
