61034489
  -OEChem-03302302543D

 29 30  0     0  0  0  0  0  0999 V2000
   -2.8810   -0.6654   -0.4866 O   0  0  0  0  0  0  0  0  0  0  0  0
    2.5762    0.0776    0.0507 N   0  0  0  0  0  0  0  0  0  0  0  0
   -5.9467    0.9627    0.7476 N   0  0  0  0  0  0  0  0  0  0  0  0
    1.2121   -0.1079   -0.0823 C   0  0  0  0  0  0  0  0  0  0  0  0
   -1.5390   -0.4826   -0.3538 C   0  0  0  0  0  0  0  0  0  0  0  0
    0.3851    0.9782   -0.3686 C   0  0  0  0  0  0  0  0  0  0  0  0
    0.6634   -1.3815    0.0684 C   0  0  0  0  0  0  0  0  0  0  0  0
   -0.9903    0.7910   -0.5045 C   0  0  0  0  0  0  0  0  0  0  0  0
   -0.7121   -1.5689   -0.0674 C   0  0  0  0  0  0  0  0  0  0  0  0
    3.4847   -0.9103    0.3286 C   0  0  0  0  0  0  0  0  0  0  0  0
    3.2263    1.2777   -0.0725 C   0  0  0  0  0  0  0  0  0  0  0  0
   -3.7239    0.4284   -0.1271 C   0  0  0  0  0  0  0  0  0  0  0  0
    4.7334   -0.3317    0.3845 C   0  0  0  0  0  0  0  0  0  0  0  0
    4.5700    1.0526    0.1305 C   0  0  0  0  0  0  0  0  0  0  0  0
   -5.0582   -0.1200    0.3526 C   0  0  0  0  0  0  0  0  0  0  0  0
    0.7460    1.9915   -0.5048 H   0  0  0  0  0  0  0  0  0  0  0  0
    1.2469   -2.2676    0.2910 H   0  0  0  0  0  0  0  0  0  0  0  0
   -1.5952    1.6574   -0.7553 H   0  0  0  0  0  0  0  0  0  0  0  0
   -1.1350   -2.5629    0.0510 H   0  0  0  0  0  0  0  0  0  0  0  0
    3.2277   -1.9495    0.4723 H   0  0  0  0  0  0  0  0  0  0  0  0
    2.7360    2.2152   -0.2905 H   0  0  0  0  0  0  0  0  0  0  0  0
   -3.2865    1.0204    0.6882 H   0  0  0  0  0  0  0  0  0  0  0  0
   -3.8682    1.0690   -1.0055 H   0  0  0  0  0  0  0  0  0  0  0  0
   -5.5231   -0.7187   -0.4390 H   0  0  0  0  0  0  0  0  0  0  0  0
   -4.8998   -0.7962    1.2003 H   0  0  0  0  0  0  0  0  0  0  0  0
    5.6599   -0.8508    0.5859 H   0  0  0  0  0  0  0  0  0  0  0  0
    5.3464    1.8040    0.0990 H   0  0  0  0  0  0  0  0  0  0  0  0
   -6.8515    0.5778    1.0158 H   0  0  0  0  0  0  0  0  0  0  0  0
   -6.1210    1.5732   -0.0497 H   0  0  0  0  0  0  0  0  0  0  0  0
  1  5  1  0  0  0  0
  1 12  1  0  0  0  0
  2  4  1  0  0  0  0
  2 10  1  0  0  0  0
  2 11  1  0  0  0  0
  3 15  1  0  0  0  0
  3 28  1  0  0  0  0
  3 29  1  0  0  0  0
  4  6  2  0  0  0  0
  4  7  1  0  0  0  0
  5  8  2  0  0  0  0
  5  9  1  0  0  0  0
  6  8  1  0  0  0  0
  6 16  1  0  0  0  0
  7  9  2  0  0  0  0
  7 17  1  0  0  0  0
  8 18  1  0  0  0  0
  9 19  1  0  0  0  0
 10 13  2  0  0  0  0
 10 20  1  0  0  0  0
 11 14  2  0  0  0  0
 11 21  1  0  0  0  0
 12 15  1  0  0  0  0
 12 22  1  0  0  0  0
 12 23  1  0  0  0  0
 13 14  1  0  0  0  0
 13 26  1  0  0  0  0
 14 27  1  0  0  0  0
 15 24  1  0  0  0  0
 15 25  1  0  0  0  0
M  END
> <PUBCHEM_COMPOUND_CID>
61034489

> <PUBCHEM_CONFORMER_RMSD>
0.6

> <PUBCHEM_CONFORMER_DIVERSEORDER>
1
13
7
8
3
11
4
12
9
10
14
6
5
2

> <PUBCHEM_MMFF94_PARTIAL_CHARGES>
25
1 -0.36
10 -0.3
11 -0.3
12 0.28
13 -0.15
14 -0.15
15 0.27
16 0.15
17 0.15
18 0.15
19 0.15
2 0.33
20 0.15
21 0.15
26 0.15
27 0.15
28 0.36
29 0.36
3 -0.99
4 -0.02
5 0.08
6 -0.15
7 -0.15
8 -0.15
9 -0.15

> <PUBCHEM_EFFECTIVE_ROTOR_COUNT>
4

> <PUBCHEM_PHARMACOPHORE_FEATURES>
6
1 1 acceptor
1 2 cation
1 3 cation
1 3 donor
5 2 10 11 13 14 rings
6 4 5 6 7 8 9 rings

> <PUBCHEM_HEAVY_ATOM_COUNT>
15

> <PUBCHEM_ATOM_DEF_STEREO_COUNT>
0

> <PUBCHEM_ATOM_UDEF_STEREO_COUNT>
0

> <PUBCHEM_BOND_DEF_STEREO_COUNT>
0

> <PUBCHEM_BOND_UDEF_STEREO_COUNT>
0

> <PUBCHEM_ISOTOPIC_ATOM_COUNT>
0

> <PUBCHEM_COMPONENT_COUNT>
1

> <PUBCHEM_CACTVS_TAUTO_COUNT>
1

> <PUBCHEM_CONFORMER_ID>
03A34FF900000001

> <PUBCHEM_MMFF94_ENERGY>
40.184

> <PUBCHEM_FEATURE_SELFOVERLAP>
30.446

> <PUBCHEM_SHAPE_FINGERPRINT>
10354089 29 18334297573598367360
11089746 13 17632286870422992233
117890 112 17561083600792710073
12236239 1 18131349709217658255
12670543 26 11095894739598579267
13675066 3 18040714779269374239
13760787 5 18334005116411360614
14943859 89 18201998845729187399
15048467 5 18059856177065724288
15196674 1 18337388343955362070
17834072 33 17988354966508744671
17834076 25 17275386508263785221
18186145 218 18335411383610037358
187816 3 11887956557728191407
19784866 9 18410855434648638651
20645477 70 18342457002697815214
21267235 1 18261957354413571882
212847 35 18273213105922246152
23402539 116 17418086624990874565
23402655 69 18201997763608230750
23557571 272 16226323703912389831
23559900 14 18271239517590329018
293599 30 18272090500228815533
366044 4 18411416228333577535
4047638 21 18411700997987631862
42 15 18113899359719544767
42630746 31 18272371932003081231
42788 4 18413670214601698801
449060 62 18411980260808460126
5104073 3 18263072379109553570
53655031 270 18411980243470153553
5374978 207 18335132099177579816
69090 78 18340479049798215838
8272917 22 18202005391576169838

> <PUBCHEM_SHAPE_MULTIPOLES>
292.86
11.06
1.38
0.71
8.33
0.15
0.01
-2.82
2.79
-0.42
-0.01
0.22
-0.03
-0.36

> <PUBCHEM_SHAPE_SELFOVERLAP>
622.846

> <PUBCHEM_SHAPE_VOLUME>
163.9

> <PUBCHEM_COORDINATE_TYPE>
2
5
10

$$$$
