68741914
  -OEChem-03302302543D

 41 42  0     0  0  0  0  0  0999 V2000
   -4.7767    2.1509   -0.2562 N   0  0  0  0  0  0  0  0  0  0  0  0
    4.7525    2.1744   -0.2591 N   0  0  0  0  0  0  0  0  0  0  0  0
    0.0006   -2.3999   -0.1280 C   0  0  0  0  0  0  0  0  0  0  0  0
   -0.0042   -0.9368    0.4833 C   0  0  0  0  0  0  0  0  0  0  0  0
   -1.1968   -3.2873    0.2536 C   0  0  0  0  0  0  0  0  0  0  0  0
    0.0392   -2.3116   -1.6738 C   0  0  0  0  0  0  0  0  0  0  0  0
    1.2870   -3.1391    0.3162 C   0  0  0  0  0  0  0  0  0  0  0  0
   -1.2801   -0.1120    0.2860 C   0  0  0  0  0  0  0  0  0  0  0  0
    1.2670   -0.1048    0.2854 C   0  0  0  0  0  0  0  0  0  0  0  0
   -2.0982    0.1798    1.3774 C   0  0  0  0  0  0  0  0  0  0  0  0
    2.0837    0.1919    1.3765 C   0  0  0  0  0  0  0  0  0  0  0  0
   -1.6233    0.3477   -0.9855 C   0  0  0  0  0  0  0  0  0  0  0  0
    1.6080    0.3553   -0.9865 C   0  0  0  0  0  0  0  0  0  0  0  0
   -3.2595    0.9311    1.1975 C   0  0  0  0  0  0  0  0  0  0  0  0
    3.2412    0.9490    1.1959 C   0  0  0  0  0  0  0  0  0  0  0  0
   -2.7847    1.0990   -1.1655 C   0  0  0  0  0  0  0  0  0  0  0  0
    2.7654    1.1124   -1.1672 C   0  0  0  0  0  0  0  0  0  0  0  0
   -3.6027    1.3907   -0.0740 C   0  0  0  0  0  0  0  0  0  0  0  0
    3.5819    1.4092   -0.0761 C   0  0  0  0  0  0  0  0  0  0  0  0
   -0.0068   -1.1522    1.5647 H   0  0  0  0  0  0  0  0  0  0  0  0
   -1.1080   -4.2944   -0.1690 H   0  0  0  0  0  0  0  0  0  0  0  0
   -1.2722   -3.3874    1.3420 H   0  0  0  0  0  0  0  0  0  0  0  0
   -2.1390   -2.8610   -0.1070 H   0  0  0  0  0  0  0  0  0  0  0  0
    0.0550   -3.3320   -2.0842 H   0  0  0  0  0  0  0  0  0  0  0  0
   -0.8517   -1.8612   -2.1099 H   0  0  0  0  0  0  0  0  0  0  0  0
    0.9444   -1.8560   -2.0728 H   0  0  0  0  0  0  0  0  0  0  0  0
    1.3046   -4.1664   -0.0667 H   0  0  0  0  0  0  0  0  0  0  0  0
    1.3480   -3.1949    1.4089 H   0  0  0  0  0  0  0  0  0  0  0  0
    2.1950   -2.6493   -0.0503 H   0  0  0  0  0  0  0  0  0  0  0  0
   -1.8476   -0.1697    2.3753 H   0  0  0  0  0  0  0  0  0  0  0  0
    1.8347   -0.1583    2.3746 H   0  0  0  0  0  0  0  0  0  0  0  0
   -1.0275    0.1682   -1.8681 H   0  0  0  0  0  0  0  0  0  0  0  0
    1.0105    0.1779   -1.8686 H   0  0  0  0  0  0  0  0  0  0  0  0
   -3.8889    1.1519    2.0559 H   0  0  0  0  0  0  0  0  0  0  0  0
    3.8695    1.1736    2.0540 H   0  0  0  0  0  0  0  0  0  0  0  0
   -3.0406    1.4544   -2.1605 H   0  0  0  0  0  0  0  0  0  0  0  0
    3.0189    1.4692   -2.1624 H   0  0  0  0  0  0  0  0  0  0  0  0
   -5.0264    2.4836   -1.1780 H   0  0  0  0  0  0  0  0  0  0  0  0
   -5.3708    2.3621    0.5345 H   0  0  0  0  0  0  0  0  0  0  0  0
    4.9997    2.5088   -1.1810 H   0  0  0  0  0  0  0  0  0  0  0  0
    5.3447    2.3906    0.5317 H   0  0  0  0  0  0  0  0  0  0  0  0
  1 18  1  0  0  0  0
  1 38  1  0  0  0  0
  1 39  1  0  0  0  0
  2 19  1  0  0  0  0
  2 40  1  0  0  0  0
  2 41  1  0  0  0  0
  3  4  1  0  0  0  0
  3  5  1  0  0  0  0
  3  6  1  0  0  0  0
  3  7  1  0  0  0  0
  4  8  1  0  0  0  0
  4  9  1  0  0  0  0
  4 20  1  0  0  0  0
  5 21  1  0  0  0  0
  5 22  1  0  0  0  0
  5 23  1  0  0  0  0
  6 24  1  0  0  0  0
  6 25  1  0  0  0  0
  6 26  1  0  0  0  0
  7 27  1  0  0  0  0
  7 28  1  0  0  0  0
  7 29  1  0  0  0  0
  8 10  2  0  0  0  0
  8 12  1  0  0  0  0
  9 11  2  0  0  0  0
  9 13  1  0  0  0  0
 10 14  1  0  0  0  0
 10 30  1  0  0  0  0
 11 15  1  0  0  0  0
 11 31  1  0  0  0  0
 12 16  2  0  0  0  0
 12 32  1  0  0  0  0
 13 17  2  0  0  0  0
 13 33  1  0  0  0  0
 14 18  2  0  0  0  0
 14 34  1  0  0  0  0
 15 19  2  0  0  0  0
 15 35  1  0  0  0  0
 16 18  1  0  0  0  0
 16 36  1  0  0  0  0
 17 19  1  0  0  0  0
 17 37  1  0  0  0  0
M  END
> <PUBCHEM_COMPOUND_CID>
68741914

> <PUBCHEM_CONFORMER_RMSD>
0.6

> <PUBCHEM_CONFORMER_DIVERSEORDER>
1
3
2
5
4

> <PUBCHEM_MMFF94_PARTIAL_CHARGES>
27
1 -0.9
10 -0.15
11 -0.15
12 -0.15
13 -0.15
14 -0.15
15 -0.15
16 -0.15
17 -0.15
18 0.1
19 0.1
2 -0.9
30 0.15
31 0.15
32 0.15
33 0.15
34 0.15
35 0.15
36 0.15
37 0.15
38 0.4
39 0.4
4 0.29
40 0.4
41 0.4
8 -0.14
9 -0.14

> <PUBCHEM_EFFECTIVE_ROTOR_COUNT>
3

> <PUBCHEM_PHARMACOPHORE_FEATURES>
7
1 1 cation
1 1 donor
1 2 cation
1 2 donor
4 3 5 6 7 hydrophobe
6 8 10 12 14 16 18 rings
6 9 11 13 15 17 19 rings

> <PUBCHEM_HEAVY_ATOM_COUNT>
19

> <PUBCHEM_ATOM_DEF_STEREO_COUNT>
0

> <PUBCHEM_ATOM_UDEF_STEREO_COUNT>
0

> <PUBCHEM_BOND_DEF_STEREO_COUNT>
0

> <PUBCHEM_BOND_UDEF_STEREO_COUNT>
0

> <PUBCHEM_ISOTOPIC_ATOM_COUNT>
0

> <PUBCHEM_COMPONENT_COUNT>
1

> <PUBCHEM_CACTVS_TAUTO_COUNT>
1

> <PUBCHEM_CONFORMER_ID>
0418EB1A00000001

> <PUBCHEM_MMFF94_ENERGY>
90.0038

> <PUBCHEM_FEATURE_SELFOVERLAP>
35.521

> <PUBCHEM_SHAPE_FINGERPRINT>
10165383 225 17978833156624794081
11640471 11 18265876081862019354
12138202 97 17916588777338121094
12173636 292 18194396921277039788
12251169 10 16225767419284214861
12363563 72 9295289438870885648
12500047 106 18270400620035355960
12532896 13 18411420648055307438
12633257 1 15502377858819917744
12730499 353 18338528430703601649
12788726 201 18049429645828538330
13134695 92 17758672252585105334
13583140 156 16878215476044127869
13681431 1 17622452644607485326
14123255 52 18410013247185743804
14142880 1 18263354966134692309
14181834 199 18055344739165418327
15309172 13 18408608067072507945
15342168 16 18408321060531588405
15906896 17 18267017452104555446
16752209 62 18124018285684782546
16945 1 16805323296787783098
17134986 127 18410296895631755446
1741750 31 18340767143335133000
1813 80 17267509387619178638
18186145 218 18131082514748906404
18222031 100 11891338642457666361
18785283 64 18262522463954944866
19765921 60 18202273680913110563
204376 136 18410011048241382225
20510252 161 18052819444619261930
20645477 56 18197793304342987440
21524375 3 18343297063392171086
21731228 192 18187365449690787344
2255824 54 18053663573413103503
22907989 373 17911803779621529868
23419403 2 17409705038798790751
23557571 272 17911814775460883444
23559900 14 17243034362412154047
25 1 17917725581876823360
283562 15 17977376458622299922
350125 39 18410583885120426395
3729539 64 17977414671510790150
4340502 62 18412548674630032667
458136 41 18340498772245776123
474 4 18339357453411518081
495365 180 18192708943601254257
5845 1 9334147824800690278
59755656 520 17987536912176812579
633830 44 17845394170862993001
6442390 28 18269293372892269067
7364860 26 18124873456501360531
7808743 9 18264210386466691740
81228 2 17908423910969209290
81539 233 18339640032242108021
8272917 22 18125160438132546845
84936 182 18128534864645176329
84936 31 18126837197211752791
9999458 23 18115026282113999074

> <PUBCHEM_SHAPE_MULTIPOLES>
381.05
6.93
3.21
1.41
0.17
3.31
-0.06
-7.94
0.18
-0.03
-0.33
0
-0.03
-0.01

> <PUBCHEM_SHAPE_SELFOVERLAP>
804.958

> <PUBCHEM_SHAPE_VOLUME>
215.5

> <PUBCHEM_COORDINATE_TYPE>
2
5
10

$$$$
