101265229
  -OEChem-02062310133D

 35 35  0     1  0  0  0  0  0999 V2000
    3.7032    0.9494   -0.2184 P   0  0  0  0  0  0  0  0  0  0  0  0
    0.0864   -0.5592    1.5221 O   0  0  0  0  0  0  0  0  0  0  0  0
   -2.3101   -1.0982   -1.8283 O   0  0  0  0  0  0  0  0  0  0  0  0
    0.3585   -2.1782   -1.7785 O   0  0  0  0  0  0  0  0  0  0  0  0
   -1.7842   -0.0509    2.8539 O   0  0  0  0  0  0  0  0  0  0  0  0
    2.2274    0.3127   -0.0188 O   0  0  0  0  0  0  0  0  0  0  0  0
   -4.2507    0.9443   -0.7502 O   0  0  0  0  0  0  0  0  0  0  0  0
    4.4343   -0.0849   -1.2238 O   0  0  0  0  0  0  0  0  0  0  0  0
    4.4191    0.6566    1.2017 O   0  0  0  0  0  0  0  0  0  0  0  0
    3.7197    2.3861   -0.6523 O   0  0  0  0  0  0  0  0  0  0  0  0
   -2.1268    0.8303    0.1944 N   0  0  0  0  0  0  0  0  0  0  0  0
   -1.6046   -1.4233   -0.6335 C   0  0  2  0  0  0  0  0  0  0  0  0
   -2.1374   -0.5814    0.5286 C   0  0  1  0  0  0  0  0  0  0  0  0
   -0.0980   -1.2201   -0.8268 C   0  0  1  0  0  0  0  0  0  0  0  0
    0.6459   -1.3991    0.5060 C   0  0  1  0  0  0  0  0  0  0  0  0
   -1.2910   -0.8443    1.7782 C   0  0  1  0  0  0  0  0  0  0  0  0
    2.1238   -1.0389    0.3898 C   0  0  0  0  0  0  0  0  0  0  0  0
   -3.1897    1.4660   -0.4172 C   0  0  0  0  0  0  0  0  0  0  0  0
   -2.9258    2.9330   -0.6269 C   0  0  0  0  0  0  0  0  0  0  0  0
   -1.8006   -2.4851   -0.4356 H   0  0  0  0  0  0  0  0  0  0  0  0
   -3.1826   -0.8485    0.7285 H   0  0  0  0  0  0  0  0  0  0  0  0
    0.0775   -0.2276   -1.2570 H   0  0  0  0  0  0  0  0  0  0  0  0
    0.5848   -2.4439    0.8385 H   0  0  0  0  0  0  0  0  0  0  0  0
   -1.3867   -1.8960    2.0773 H   0  0  0  0  0  0  0  0  0  0  0  0
    2.6083   -1.1504    1.3653 H   0  0  0  0  0  0  0  0  0  0  0  0
    2.6253   -1.6882   -0.3341 H   0  0  0  0  0  0  0  0  0  0  0  0
   -1.2776    1.3567    0.3805 H   0  0  0  0  0  0  0  0  0  0  0  0
   -3.2549   -1.2594   -1.6636 H   0  0  0  0  0  0  0  0  0  0  0  0
    0.2283   -3.0644   -1.4000 H   0  0  0  0  0  0  0  0  0  0  0  0
   -1.5398   -0.5036    3.6789 H   0  0  0  0  0  0  0  0  0  0  0  0
   -1.9856    3.0717   -1.1684 H   0  0  0  0  0  0  0  0  0  0  0  0
   -3.7370    3.3739   -1.2128 H   0  0  0  0  0  0  0  0  0  0  0  0
   -2.8676    3.4379    0.3413 H   0  0  0  0  0  0  0  0  0  0  0  0
    5.3334    0.1284   -1.5527 H   0  0  0  0  0  0  0  0  0  0  0  0
    5.3098    1.0313    1.3703 H   0  0  0  0  0  0  0  0  0  0  0  0
  1  6  1  0  0  0  0
  1  8  1  0  0  0  0
  1  9  1  0  0  0  0
  1 10  2  0  0  0  0
  2 15  1  0  0  0  0
  2 16  1  0  0  0  0
  3 12  1  0  0  0  0
  3 28  1  0  0  0  0
  4 14  1  0  0  0  0
  4 29  1  0  0  0  0
  5 16  1  0  0  0  0
  5 30  1  0  0  0  0
  6 17  1  0  0  0  0
  7 18  2  0  0  0  0
  8 34  1  0  0  0  0
  9 35  1  0  0  0  0
 11 13  1  0  0  0  0
 11 18  1  0  0  0  0
 11 27  1  0  0  0  0
 12 13  1  0  0  0  0
 12 14  1  0  0  0  0
 12 20  1  0  0  0  0
 13 16  1  0  0  0  0
 13 21  1  0  0  0  0
 14 15  1  0  0  0  0
 14 22  1  0  0  0  0
 15 17  1  0  0  0  0
 15 23  1  0  0  0  0
 16 24  1  0  0  0  0
 17 25  1  0  0  0  0
 17 26  1  0  0  0  0
 18 19  1  0  0  0  0
 19 31  1  0  0  0  0
 19 32  1  0  0  0  0
 19 33  1  0  0  0  0
M  END
> <PUBCHEM_COMPOUND_CID>
101265229

> <PUBCHEM_CONFORMER_RMSD>
0.8

> <PUBCHEM_CONFORMER_DIVERSEORDER>
1
9
5
10
6
12
3
11
4
13
7
8
2

> <PUBCHEM_MMFF94_PARTIAL_CHARGES>
25
1 1.51
10 -0.7
11 -0.73
12 0.28
13 0.3
14 0.28
15 0.28
16 0.56
17 0.28
18 0.57
19 0.06
2 -0.56
27 0.37
28 0.4
29 0.4
3 -0.68
30 0.4
34 0.5
35 0.5
4 -0.68
5 -0.68
6 -0.55
7 -0.57
8 -0.77
9 -0.77

> <PUBCHEM_EFFECTIVE_ROTOR_COUNT>
6.2

> <PUBCHEM_PHARMACOPHORE_FEATURES>
14
1 10 acceptor
1 11 donor
1 2 acceptor
1 3 acceptor
1 3 donor
1 4 acceptor
1 4 donor
1 5 acceptor
1 5 donor
1 7 acceptor
1 8 acceptor
1 9 acceptor
4 1 8 9 10 anion
6 2 12 13 14 15 16 rings

> <PUBCHEM_HEAVY_ATOM_COUNT>
19

> <PUBCHEM_ATOM_DEF_STEREO_COUNT>
5

> <PUBCHEM_ATOM_UDEF_STEREO_COUNT>
0

> <PUBCHEM_BOND_DEF_STEREO_COUNT>
0

> <PUBCHEM_BOND_UDEF_STEREO_COUNT>
0

> <PUBCHEM_ISOTOPIC_ATOM_COUNT>
0

> <PUBCHEM_COMPONENT_COUNT>
1

> <PUBCHEM_CACTVS_TAUTO_COUNT>
3

> <PUBCHEM_CONFORMER_ID>
06092F4D00000001

> <PUBCHEM_MMFF94_ENERGY>
2.7719

> <PUBCHEM_FEATURE_SELFOVERLAP>
71.141

> <PUBCHEM_SHAPE_FINGERPRINT>
11127187 94 16486971847006736351
11221954 11 18047761403342679821
11552529 35 16661784352121977890
11769659 78 10375572820464386841
122479 349 18114183003644450256
12633257 1 16370994201353089920
12824470 246 10159689222646151021
13764800 53 17749118806530650280
13994607 96 17968388951570636621
14787075 74 17822293526632714569
15295992 7 17679034694262535153
15534591 1 18261104162848449299
16945 1 18126544924819336403
18186145 218 17845949489060156934
19784866 140 15841547436587090319
19868273 293 18272086119420234910
20645476 183 18272642454823879558
20775530 9 10806487932849965405
21475661 188 17606107395170290237
21524375 3 18410567366612129257
21864079 5 18115313409621027908
23114952 82 17700982028911575535
23352939 185 17985830573784504795
23557571 272 18189639227327172355
27216 239 18041284373452988289
2838139 119 18263065657169821437
4175511 318 18131067164456493863
474 4 17968088694633244821
56616090 13 18187920639071412533

> <PUBCHEM_SHAPE_MULTIPOLES>
337.06
7.45
2.38
1.81
6.1
1.64
0.62
5.58
-0.89
-0.86
-0.62
-0.65
-0.92
0.23

> <PUBCHEM_SHAPE_SELFOVERLAP>
661.063

> <PUBCHEM_SHAPE_VOLUME>
202.1

> <PUBCHEM_COORDINATE_TYPE>
2
5
10

$$$$
