124155
  -OEChem-02062310153D

 29 29  0     1  0  0  0  0  0999 V2000
    3.7075    0.0486   -0.0287 P   0  0  0  0  0  0  0  0  0  0  0  0
   -1.1917    1.0032    0.5015 O   0  0  0  0  0  0  0  0  0  0  0  0
   -2.8352   -2.0986   -0.2534 O   0  0  0  0  0  0  0  0  0  0  0  0
   -0.4119   -1.2933   -1.2263 O   0  0  0  0  0  0  0  0  0  0  0  0
   -3.3689    0.6321    1.3372 O   0  0  0  0  0  0  0  0  0  0  0  0
    2.2111   -0.3113    0.4713 O   0  0  0  0  0  0  0  0  0  0  0  0
   -3.2925    2.0115   -1.0664 O   0  0  0  0  0  0  0  0  0  0  0  0
    3.9826    1.5113    0.6038 O   0  0  0  0  0  0  0  0  0  0  0  0
    3.4970    0.3573   -1.6020 O   0  0  0  0  0  0  0  0  0  0  0  0
    4.7464   -0.9897    0.2800 O   0  0  0  0  0  0  0  0  0  0  0  0
   -2.0670   -1.2034    0.5240 C   0  0  1  0  0  0  0  0  0  0  0  0
   -0.5914   -1.2568    0.1836 C   0  0  2  0  0  0  0  0  0  0  0  0
   -2.4257    0.2746    0.3269 C   0  0  2  0  0  0  0  0  0  0  0  0
   -0.1281    0.0686    0.7731 C   0  0  1  0  0  0  0  0  0  0  0  0
    1.1717    0.6200    0.2172 C   0  0  0  0  0  0  0  0  0  0  0  0
   -3.0039    0.6258   -1.0418 C   0  0  0  0  0  0  0  0  0  0  0  0
   -2.1969   -1.4934    1.5745 H   0  0  0  0  0  0  0  0  0  0  0  0
   -0.0768   -2.1207    0.6146 H   0  0  0  0  0  0  0  0  0  0  0  0
   -0.0515   -0.0297    1.8640 H   0  0  0  0  0  0  0  0  0  0  0  0
    1.4014    1.5760    0.7002 H   0  0  0  0  0  0  0  0  0  0  0  0
    1.0872    0.8155   -0.8571 H   0  0  0  0  0  0  0  0  0  0  0  0
   -3.9442    0.0971   -1.2247 H   0  0  0  0  0  0  0  0  0  0  0  0
   -2.3069    0.4133   -1.8571 H   0  0  0  0  0  0  0  0  0  0  0  0
   -2.4780   -2.9917   -0.1109 H   0  0  0  0  0  0  0  0  0  0  0  0
   -0.8342   -2.1064   -1.5520 H   0  0  0  0  0  0  0  0  0  0  0  0
   -3.0945    0.2319    2.1787 H   0  0  0  0  0  0  0  0  0  0  0  0
   -2.4616    2.4874   -0.8964 H   0  0  0  0  0  0  0  0  0  0  0  0
    4.8679    1.9182    0.4910 H   0  0  0  0  0  0  0  0  0  0  0  0
    4.2850    0.5164   -2.1640 H   0  0  0  0  0  0  0  0  0  0  0  0
  1  6  1  0  0  0  0
  1  8  1  0  0  0  0
  1  9  1  0  0  0  0
  1 10  2  0  0  0  0
  2 13  1  0  0  0  0
  2 14  1  0  0  0  0
  3 11  1  0  0  0  0
  3 24  1  0  0  0  0
  4 12  1  0  0  0  0
  4 25  1  0  0  0  0
  5 13  1  0  0  0  0
  5 26  1  0  0  0  0
  6 15  1  0  0  0  0
  7 16  1  0  0  0  0
  7 27  1  0  0  0  0
  8 28  1  0  0  0  0
  9 29  1  0  0  0  0
 11 12  1  0  0  0  0
 11 13  1  0  0  0  0
 11 17  1  0  0  0  0
 12 14  1  0  0  0  0
 12 18  1  0  0  0  0
 13 16  1  0  0  0  0
 14 15  1  0  0  0  0
 14 19  1  0  0  0  0
 15 20  1  0  0  0  0
 15 21  1  0  0  0  0
 16 22  1  0  0  0  0
 16 23  1  0  0  0  0
M  END
> <PUBCHEM_COMPOUND_CID>
124155

> <PUBCHEM_CONFORMER_RMSD>
0.6

> <PUBCHEM_CONFORMER_DIVERSEORDER>
2
24
20
31
18
27
34
14
32
5
6
23
16
13
26
19
9
28
15
30
33
8
17
21
10
4
25
22
7
29
12
1
3
11

> <PUBCHEM_MMFF94_PARTIAL_CHARGES>
22
1 1.51
10 -0.7
11 0.28
12 0.28
13 0.56
14 0.28
15 0.28
16 0.28
2 -0.56
24 0.4
25 0.4
26 0.4
27 0.4
28 0.5
29 0.5
3 -0.68
4 -0.68
5 -0.68
6 -0.55
7 -0.68
8 -0.77
9 -0.77

> <PUBCHEM_EFFECTIVE_ROTOR_COUNT>
5

> <PUBCHEM_PHARMACOPHORE_FEATURES>
14
1 10 acceptor
1 2 acceptor
1 3 acceptor
1 3 donor
1 4 acceptor
1 4 donor
1 5 acceptor
1 5 donor
1 7 acceptor
1 7 donor
1 8 acceptor
1 9 acceptor
4 1 8 9 10 anion
5 2 11 12 13 14 rings

> <PUBCHEM_HEAVY_ATOM_COUNT>
16

> <PUBCHEM_ATOM_DEF_STEREO_COUNT>
4

> <PUBCHEM_ATOM_UDEF_STEREO_COUNT>
0

> <PUBCHEM_BOND_DEF_STEREO_COUNT>
0

> <PUBCHEM_BOND_UDEF_STEREO_COUNT>
0

> <PUBCHEM_ISOTOPIC_ATOM_COUNT>
0

> <PUBCHEM_COMPONENT_COUNT>
1

> <PUBCHEM_CACTVS_TAUTO_COUNT>
1

> <PUBCHEM_CONFORMER_ID>
0001E4FB00000002

> <PUBCHEM_MMFF94_ENERGY>
7.7349

> <PUBCHEM_FEATURE_SELFOVERLAP>
71.151

> <PUBCHEM_SHAPE_FINGERPRINT>
10014705 185 18334569165939979176
10680689 15 18186524314805837546
12138202 97 18411412882954850943
12173636 292 18186513323858153815
12186901 62 18408047311878919527
12932764 1 18333732433369854872
13024252 1 16732699476385285611
13296908 3 18201722898665374858
13675066 3 18040155111019198280
16945 1 18341890749671267971
18186145 218 18342463646911540376
19422 9 18335144232365303786
1986462 14 18412829113665238474
200 152 15697995224007579924
20279233 1 16917071057897981718
20645476 183 18186514389020826619
20645477 56 18334012778770380717
20645477 70 17775573018294486534
23402539 116 17131548345647327288
23559900 14 18273210886030516786
2748010 2 18057310885257371681
3248919 1 17131841975513113944
4175511 318 18408321077489508805
58051976 100 18340211885314886230
633830 44 17489319563653805308

> <PUBCHEM_SHAPE_MULTIPOLES>
280.3
7.88
1.64
1.14
7.86
0.12
0.24
-1.27
0.45
-1.15
0.24
-0.24
-0.18
0.27

> <PUBCHEM_SHAPE_SELFOVERLAP>
551.017

> <PUBCHEM_SHAPE_VOLUME>
170

> <PUBCHEM_COORDINATE_TYPE>
2
5
10

$$$$
