126843497
  -OEChem-02062310113D

 26 25  0     1  0  0  0  0  0999 V2000
   -3.1253   -0.6754    0.1000 P   0  0  0  0  0  0  0  0  0  0  0  0
    2.2731    1.5333    0.8648 O   0  0  0  0  0  0  0  0  0  0  0  0
   -0.3014    2.6250    0.7056 O   0  0  0  0  0  0  0  0  0  0  0  0
   -1.7839    0.1767    0.4005 O   0  0  0  0  0  0  0  0  0  0  0  0
    2.3479    0.3130   -1.6565 O   0  0  0  0  0  0  0  0  0  0  0  0
    2.3770   -1.9019    1.1516 O   0  0  0  0  0  0  0  0  0  0  0  0
    4.0143   -1.1708   -0.2367 O   0  0  0  0  0  0  0  0  0  0  0  0
   -2.6970   -1.6510   -1.1165 O   0  0  0  0  0  0  0  0  0  0  0  0
   -4.0871    0.4103   -0.6151 O   0  0  0  0  0  0  0  0  0  0  0  0
   -3.7222   -1.3621    1.2935 O   0  0  0  0  0  0  0  0  0  0  0  0
    1.1828    0.7244    0.4248 C   0  0  1  0  0  0  0  0  0  0  0  0
    0.0902    1.6074   -0.2156 C   0  0  1  0  0  0  0  0  0  0  0  0
    1.7480   -0.3313   -0.5397 C   0  0  2  0  0  0  0  0  0  0  0  0
   -1.1595    0.8561   -0.6795 C   0  0  0  0  0  0  0  0  0  0  0  0
    2.8430   -1.1536    0.1189 C   0  0  0  0  0  0  0  0  0  0  0  0
    0.7827    0.2440    1.3247 H   0  0  0  0  0  0  0  0  0  0  0  0
    0.5207    2.1373   -1.0739 H   0  0  0  0  0  0  0  0  0  0  0  0
    0.9815   -1.0167   -0.9120 H   0  0  0  0  0  0  0  0  0  0  0  0
   -1.8765    1.5752   -1.0899 H   0  0  0  0  0  0  0  0  0  0  0  0
   -0.9075    0.1414   -1.4680 H   0  0  0  0  0  0  0  0  0  0  0  0
    2.4938    2.1593    0.1549 H   0  0  0  0  0  0  0  0  0  0  0  0
   -0.9447    3.1993    0.2561 H   0  0  0  0  0  0  0  0  0  0  0  0
    3.0427    0.9091   -1.3299 H   0  0  0  0  0  0  0  0  0  0  0  0
    3.0875   -2.4369    1.5654 H   0  0  0  0  0  0  0  0  0  0  0  0
   -3.3384   -2.3207   -1.4362 H   0  0  0  0  0  0  0  0  0  0  0  0
   -5.0137    0.1618   -0.8194 H   0  0  0  0  0  0  0  0  0  0  0  0
  1  4  1  0  0  0  0
  1  8  1  0  0  0  0
  1  9  1  0  0  0  0
  1 10  2  0  0  0  0
  2 11  1  0  0  0  0
  2 21  1  0  0  0  0
  3 12  1  0  0  0  0
  3 22  1  0  0  0  0
  4 14  1  0  0  0  0
  5 13  1  0  0  0  0
  5 23  1  0  0  0  0
  6 15  1  0  0  0  0
  6 24  1  0  0  0  0
  7 15  2  0  0  0  0
  8 25  1  0  0  0  0
  9 26  1  0  0  0  0
 11 12  1  0  0  0  0
 11 13  1  0  0  0  0
 11 16  1  0  0  0  0
 12 14  1  0  0  0  0
 12 17  1  0  0  0  0
 13 15  1  0  0  0  0
 13 18  1  0  0  0  0
 14 19  1  0  0  0  0
 14 20  1  0  0  0  0
M  END
> <PUBCHEM_COMPOUND_CID>
126843497

> <PUBCHEM_CONFORMER_RMSD>
0.8

> <PUBCHEM_CONFORMER_DIVERSEORDER>
1
53
70
2
13
73
75
67
37
46
47
30
71
34
58
40
29
72
61
54
65
36
66
7
77
18
64
22
3
43
49
35
25
42
16
33
20
44
6
10
39
48
74
59
19
68
27
32
14
63
45
28
57
17
31
24
8
62
5
69
11
55
23
41
12
56
4
38
52
50
15
21
26
76
51
9
60

> <PUBCHEM_MMFF94_PARTIAL_CHARGES>
21
1 1.51
10 -0.7
11 0.28
12 0.28
13 0.34
14 0.28
15 0.66
2 -0.68
21 0.4
22 0.4
23 0.4
24 0.5
25 0.5
26 0.5
3 -0.68
4 -0.55
5 -0.68
6 -0.65
7 -0.57
8 -0.77
9 -0.77

> <PUBCHEM_EFFECTIVE_ROTOR_COUNT>
6

> <PUBCHEM_PHARMACOPHORE_FEATURES>
13
1 10 acceptor
1 2 acceptor
1 2 donor
1 3 acceptor
1 3 donor
1 5 acceptor
1 5 donor
1 6 acceptor
1 7 acceptor
1 8 acceptor
1 9 acceptor
3 6 7 15 anion
4 1 8 9 10 anion

> <PUBCHEM_HEAVY_ATOM_COUNT>
15

> <PUBCHEM_ATOM_DEF_STEREO_COUNT>
3

> <PUBCHEM_ATOM_UDEF_STEREO_COUNT>
0

> <PUBCHEM_BOND_DEF_STEREO_COUNT>
0

> <PUBCHEM_BOND_UDEF_STEREO_COUNT>
0

> <PUBCHEM_ISOTOPIC_ATOM_COUNT>
0

> <PUBCHEM_COMPONENT_COUNT>
1

> <PUBCHEM_CACTVS_TAUTO_COUNT>
1

> <PUBCHEM_CONFORMER_ID>
078F7A6900000001

> <PUBCHEM_MMFF94_ENERGY>
-9.9222

> <PUBCHEM_FEATURE_SELFOVERLAP>
66.096

> <PUBCHEM_SHAPE_FINGERPRINT>
10149128 111 9295283958487217718
12932764 1 18341899649001747733
13296908 3 18409729603629954037
14115302 16 18117000987522021997
14252887 29 18060426819616633462
14350558 41 18114181904348827526
15375462 189 18409731767929779738
18186145 218 14707211036869337533
19107657 9 9078833038686772887
19766037 51 18261403259949355451
20281407 28 18334296452691030793
20361792 2 18413669119195218949
20645477 70 18342730840990071375
20711983 138 18409729547837791649
20767249 462 10159701274382496715
20871998 22 17916877819910024900
21713013 43 17023189357274572283
22485316 2 18410007736715913661
232386 152 18413109450512552342
23500284 5 18263929847417552051
81228 2 18055646018394716417
83771 10 18409169904513192580
94968 8 18262527003756443147

> <PUBCHEM_SHAPE_MULTIPOLES>
259.72
6.75
2.1
1.14
2.84
0.54
0.11
-3.8
0.01
-0.32
-0.54
-0.01
-0.14
0.08

> <PUBCHEM_SHAPE_SELFOVERLAP>
489.681

> <PUBCHEM_SHAPE_VOLUME>
160.7

> <PUBCHEM_COORDINATE_TYPE>
2
5
10

$$$$
