126843503
  -OEChem-02062310113D

 26 25  0     1  0  0  0  0  0999 V2000
   -3.4713   -0.5174   -0.0789 P   0  0  0  0  0  0  0  0  0  0  0  0
    1.0869   -0.4743    1.3852 O   0  0  0  0  0  0  0  0  0  0  0  0
    0.0265    1.8158   -1.2934 O   0  0  0  0  0  0  0  0  0  0  0  0
   -1.9547   -0.0452   -0.3843 O   0  0  0  0  0  0  0  0  0  0  0  0
    2.9779    1.4273    0.5728 O   0  0  0  0  0  0  0  0  0  0  0  0
    3.0917   -1.7147   -1.1322 O   0  0  0  0  0  0  0  0  0  0  0  0
    4.3576   -0.8285    0.5276 O   0  0  0  0  0  0  0  0  0  0  0  0
   -4.3041    0.8681   -0.0353 O   0  0  0  0  0  0  0  0  0  0  0  0
   -3.4031   -0.9594    1.4751 O   0  0  0  0  0  0  0  0  0  0  0  0
   -4.0114   -1.5617   -1.0118 O   0  0  0  0  0  0  0  0  0  0  0  0
    1.0373    0.0720    0.0675 C   0  0  1  0  0  0  0  0  0  0  0  0
    0.0588    1.2653    0.0233 C   0  0  2  0  0  0  0  0  0  0  0  0
    2.4727    0.4528   -0.3312 C   0  0  2  0  0  0  0  0  0  0  0  0
   -1.3727    0.9411    0.4559 C   0  0  0  0  0  0  0  0  0  0  0  0
    3.4081   -0.7412   -0.2402 C   0  0  0  0  0  0  0  0  0  0  0  0
    0.6864   -0.7156   -0.6108 H   0  0  0  0  0  0  0  0  0  0  0  0
    0.4287    2.0489    0.6962 H   0  0  0  0  0  0  0  0  0  0  0  0
    2.5290    0.8669   -1.3424 H   0  0  0  0  0  0  0  0  0  0  0  0
   -1.3896    0.5983    1.4947 H   0  0  0  0  0  0  0  0  0  0  0  0
   -1.9816    1.8490    0.3865 H   0  0  0  0  0  0  0  0  0  0  0  0
    0.2366   -0.9134    1.5548 H   0  0  0  0  0  0  0  0  0  0  0  0
   -0.5495    2.5989   -1.2719 H   0  0  0  0  0  0  0  0  0  0  0  0
    2.8441    1.0954    1.4772 H   0  0  0  0  0  0  0  0  0  0  0  0
    3.7055   -2.4777   -1.0739 H   0  0  0  0  0  0  0  0  0  0  0  0
   -5.2783    0.8330    0.0738 H   0  0  0  0  0  0  0  0  0  0  0  0
   -4.1902   -1.3775    1.8846 H   0  0  0  0  0  0  0  0  0  0  0  0
  1  4  1  0  0  0  0
  1  8  1  0  0  0  0
  1  9  1  0  0  0  0
  1 10  2  0  0  0  0
  2 11  1  0  0  0  0
  2 21  1  0  0  0  0
  3 12  1  0  0  0  0
  3 22  1  0  0  0  0
  4 14  1  0  0  0  0
  5 13  1  0  0  0  0
  5 23  1  0  0  0  0
  6 15  1  0  0  0  0
  6 24  1  0  0  0  0
  7 15  2  0  0  0  0
  8 25  1  0  0  0  0
  9 26  1  0  0  0  0
 11 12  1  0  0  0  0
 11 13  1  0  0  0  0
 11 16  1  0  0  0  0
 12 14  1  0  0  0  0
 12 17  1  0  0  0  0
 13 15  1  0  0  0  0
 13 18  1  0  0  0  0
 14 19  1  0  0  0  0
 14 20  1  0  0  0  0
M  END
> <PUBCHEM_COMPOUND_CID>
126843503

> <PUBCHEM_CONFORMER_RMSD>
0.8

> <PUBCHEM_CONFORMER_DIVERSEORDER>
1
21
58
73
28
60
61
68
55
42
67
26
64
5
53
8
52
27
6
56
36
75
13
10
24
47
29
46
19
18
20
62
23
76
30
43
38
51
59
71
49
72
63
45
74
48
22
40
57
3
66
31
39
69
17
25
12
11
15
37
32
33
9
34
65
70
14
2
16
35
7
44
41
4
54
50
77

> <PUBCHEM_MMFF94_PARTIAL_CHARGES>
21
1 1.51
10 -0.7
11 0.28
12 0.28
13 0.34
14 0.28
15 0.66
2 -0.68
21 0.4
22 0.4
23 0.4
24 0.5
25 0.5
26 0.5
3 -0.68
4 -0.55
5 -0.68
6 -0.65
7 -0.57
8 -0.77
9 -0.77

> <PUBCHEM_EFFECTIVE_ROTOR_COUNT>
6

> <PUBCHEM_PHARMACOPHORE_FEATURES>
13
1 10 acceptor
1 2 acceptor
1 2 donor
1 3 acceptor
1 3 donor
1 5 acceptor
1 5 donor
1 6 acceptor
1 7 acceptor
1 8 acceptor
1 9 acceptor
3 6 7 15 anion
4 1 8 9 10 anion

> <PUBCHEM_HEAVY_ATOM_COUNT>
15

> <PUBCHEM_ATOM_DEF_STEREO_COUNT>
3

> <PUBCHEM_ATOM_UDEF_STEREO_COUNT>
0

> <PUBCHEM_BOND_DEF_STEREO_COUNT>
0

> <PUBCHEM_BOND_UDEF_STEREO_COUNT>
0

> <PUBCHEM_ISOTOPIC_ATOM_COUNT>
0

> <PUBCHEM_COMPONENT_COUNT>
1

> <PUBCHEM_CACTVS_TAUTO_COUNT>
1

> <PUBCHEM_CONFORMER_ID>
078F7A6F00000001

> <PUBCHEM_MMFF94_ENERGY>
-10.4233

> <PUBCHEM_FEATURE_SELFOVERLAP>
66.089

> <PUBCHEM_SHAPE_FINGERPRINT>
11769659 78 18344145890663599629
12032990 46 18186807992937253657
12251169 10 14908175378410970797
124424 183 16630526211496600497
13296908 3 18334012813187946449
13705890 14 18187086186817484284
14252887 29 18410015467667648016
17834074 16 18201440229260682846
18186145 218 16443346502697775789
19422 9 18201441397676241073
20281407 28 18060140924849439371
20281475 54 17917717898037873423
20432913 95 18059859454115279843
20645477 70 18342735208681758423
20671657 53 17967254217053163901
21119208 17 15574431011745214319
21524375 3 10231746795235758949
22485316 2 18202280303531141231
22854114 59 11959732672621061165
23402539 116 18114178614604397198
23500284 214 10015579527801616989
23503958 8 17704075131409827531
23557571 272 18188203204764088476
4047638 21 11386367032364335916
449060 23 18409731742133361855
548570 60 9439402415159857815
581208 293 18343017826399136394

> <PUBCHEM_SHAPE_MULTIPOLES>
259.72
8.35
1.6
1.09
2.58
0.06
-0.1
-3.38
0.04
-0.16
0.38
0.21
-0.17
0.18

> <PUBCHEM_SHAPE_SELFOVERLAP>
489.621

> <PUBCHEM_SHAPE_VOLUME>
161.1

> <PUBCHEM_COORDINATE_TYPE>
2
5
10

$$$$
