129544
  -OEChem-02062310123D

 31 30  0     1  0  0  0  0  0999 V2000
    1.7769   -1.8020    0.1342 P   0  0  0  0  0  0  0  0  0  0  0  0
    0.4796   -0.8849    0.4205 O   0  0  0  0  0  0  0  0  0  0  0  0
   -0.9810    1.4588    1.1597 O   0  0  0  0  0  0  0  0  0  0  0  0
    1.0342    2.1414   -1.5664 O   0  0  0  0  0  0  0  0  0  0  0  0
   -2.5549   -0.7394   -1.3093 O   0  0  0  0  0  0  0  0  0  0  0  0
    2.7551    2.7462    0.5610 O   0  0  0  0  0  0  0  0  0  0  0  0
   -4.6583   -0.5694    0.4570 O   0  0  0  0  0  0  0  0  0  0  0  0
    1.3840   -2.6203   -1.2042 O   0  0  0  0  0  0  0  0  0  0  0  0
    1.6804   -2.9220    1.2967 O   0  0  0  0  0  0  0  0  0  0  0  0
    3.0809   -1.0616    0.0740 O   0  0  0  0  0  0  0  0  0  0  0  0
    0.1719    0.1552   -0.5069 C   0  0  1  0  0  0  0  0  0  0  0  0
   -1.1594    0.8075   -0.0976 C   0  0  1  0  0  0  0  0  0  0  0  0
    1.3491    1.1484   -0.5820 C   0  0  2  0  0  0  0  0  0  0  0  0
   -2.3341   -0.1869   -0.0052 C   0  0  1  0  0  0  0  0  0  0  0  0
    1.6280    1.8887    0.7253 C   0  0  0  0  0  0  0  0  0  0  0  0
   -3.6524    0.4403    0.4431 C   0  0  0  0  0  0  0  0  0  0  0  0
    0.0437   -0.2922   -1.4997 H   0  0  0  0  0  0  0  0  0  0  0  0
   -1.4114    1.5822   -0.8316 H   0  0  0  0  0  0  0  0  0  0  0  0
    2.2555    0.6837   -0.9641 H   0  0  0  0  0  0  0  0  0  0  0  0
   -2.1023   -1.0168    0.6731 H   0  0  0  0  0  0  0  0  0  0  0  0
    1.8413    1.2014    1.5481 H   0  0  0  0  0  0  0  0  0  0  0  0
    0.8376    2.5805    1.0129 H   0  0  0  0  0  0  0  0  0  0  0  0
   -3.9784    1.2250   -0.2473 H   0  0  0  0  0  0  0  0  0  0  0  0
   -3.5769    0.8613    1.4495 H   0  0  0  0  0  0  0  0  0  0  0  0
   -0.8038    0.7706    1.8240 H   0  0  0  0  0  0  0  0  0  0  0  0
    1.8460    2.6424   -1.7534 H   0  0  0  0  0  0  0  0  0  0  0  0
   -1.8407   -1.3750   -1.4843 H   0  0  0  0  0  0  0  0  0  0  0  0
    2.4986    3.4625   -0.0439 H   0  0  0  0  0  0  0  0  0  0  0  0
   -4.7122   -0.9390   -0.4410 H   0  0  0  0  0  0  0  0  0  0  0  0
    2.0527   -3.2099   -1.6132 H   0  0  0  0  0  0  0  0  0  0  0  0
    2.4171   -3.5610    1.4021 H   0  0  0  0  0  0  0  0  0  0  0  0
  1  2  1  0  0  0  0
  1  8  1  0  0  0  0
  1  9  1  0  0  0  0
  1 10  2  0  0  0  0
  2 11  1  0  0  0  0
  3 12  1  0  0  0  0
  3 25  1  0  0  0  0
  4 13  1  0  0  0  0
  4 26  1  0  0  0  0
  5 14  1  0  0  0  0
  5 27  1  0  0  0  0
  6 15  1  0  0  0  0
  6 28  1  0  0  0  0
  7 16  1  0  0  0  0
  7 29  1  0  0  0  0
  8 30  1  0  0  0  0
  9 31  1  0  0  0  0
 11 12  1  0  0  0  0
 11 13  1  0  0  0  0
 11 17  1  0  0  0  0
 12 14  1  0  0  0  0
 12 18  1  0  0  0  0
 13 15  1  0  0  0  0
 13 19  1  0  0  0  0
 14 16  1  0  0  0  0
 14 20  1  0  0  0  0
 15 21  1  0  0  0  0
 15 22  1  0  0  0  0
 16 23  1  0  0  0  0
 16 24  1  0  0  0  0
M  END
> <PUBCHEM_COMPOUND_CID>
129544

> <PUBCHEM_CONFORMER_RMSD>
0.8

> <PUBCHEM_CONFORMER_DIVERSEORDER>
2
8
5
1
6
7
3
4

> <PUBCHEM_MMFF94_PARTIAL_CHARGES>
23
1 1.51
10 -0.7
11 0.28
12 0.28
13 0.28
14 0.28
15 0.28
16 0.28
2 -0.55
25 0.4
26 0.4
27 0.4
28 0.4
29 0.4
3 -0.68
30 0.5
31 0.5
4 -0.68
5 -0.68
6 -0.68
7 -0.68
8 -0.77
9 -0.77

> <PUBCHEM_EFFECTIVE_ROTOR_COUNT>
7

> <PUBCHEM_PHARMACOPHORE_FEATURES>
14
1 10 acceptor
1 3 acceptor
1 3 donor
1 4 acceptor
1 4 donor
1 5 acceptor
1 5 donor
1 6 acceptor
1 6 donor
1 7 acceptor
1 7 donor
1 8 acceptor
1 9 acceptor
4 1 8 9 10 anion

> <PUBCHEM_HEAVY_ATOM_COUNT>
16

> <PUBCHEM_ATOM_DEF_STEREO_COUNT>
4

> <PUBCHEM_ATOM_UDEF_STEREO_COUNT>
0

> <PUBCHEM_BOND_DEF_STEREO_COUNT>
0

> <PUBCHEM_BOND_UDEF_STEREO_COUNT>
0

> <PUBCHEM_ISOTOPIC_ATOM_COUNT>
0

> <PUBCHEM_COMPONENT_COUNT>
1

> <PUBCHEM_CACTVS_TAUTO_COUNT>
1

> <PUBCHEM_CONFORMER_ID>
0001FA0800000002

> <PUBCHEM_MMFF94_ENERGY>
10.3108

> <PUBCHEM_FEATURE_SELFOVERLAP>
71.108

> <PUBCHEM_SHAPE_FINGERPRINT>
1 1 18336824307364548548
11806522 49 18410579461345698770
14817 1 11372078097198710710
15375462 189 18411415068771548467
15490181 8 17901952177053768524
15775835 57 18129946822343204001
15906896 17 17545323441844007190
16945 1 18340472400956375520
20559304 39 18200883889456952841
20645476 183 17831027088672666060
20645477 70 18412542116041112895
20671657 53 18188493445863612115
20708731 107 18187939386133680669
20871998 22 18195532484570576791
2255824 54 18335430092039133828
23388829 49 18272642416258207692
23419403 2 17753859802365485588
23526113 38 16878516617665252114
23557571 272 17619335521154198794
23598291 2 18059851788004611509
2748010 2 18118698848445095182
305870 269 18340763861685011877
3250762 1 17900236647020900292
528862 383 18411131459032126059
7364860 26 18343305863769461692
81228 2 17330829124211807472
81539 233 18262233442646718557
88987 49 15984813866168834981

> <PUBCHEM_SHAPE_MULTIPOLES>
280.3
5.39
2.97
1.15
6.44
0.4
-0.19
0.83
0.87
-3.51
0.28
-0.16
0.02
-0.23

> <PUBCHEM_SHAPE_SELFOVERLAP>
525.699

> <PUBCHEM_SHAPE_VOLUME>
174.9

> <PUBCHEM_COORDINATE_TYPE>
2
5
10

$$$$
