129710438
  -OEChem-02062310123D

 27 26  0     1  0  0  0  0  0999 V2000
   -2.3373    0.4722   -0.2011 P   0  0  0  0  0  0  0  0  0  0  0  0
   -0.8623    0.7294    0.3954 O   0  0  0  0  0  0  0  0  0  0  0  0
    0.4269   -1.4968    1.6109 O   0  0  0  0  0  0  0  0  0  0  0  0
    2.6210    0.2621   -0.5270 O   0  0  0  0  0  0  0  0  0  0  0  0
    1.0579   -3.6348   -0.4022 O   0  0  0  0  0  0  0  0  0  0  0  0
    2.7060    2.9436    0.2496 O   0  0  0  0  0  0  0  0  0  0  0  0
   -2.7918   -0.8773    0.5653 O   0  0  0  0  0  0  0  0  0  0  0  0
   -3.2424    1.6177    0.4945 O   0  0  0  0  0  0  0  0  0  0  0  0
   -2.4205    0.4095   -1.6982 O   0  0  0  0  0  0  0  0  0  0  0  0
    0.2414    0.0626   -0.2291 C   0  0  0  0  0  0  0  0  0  0  0  0
    0.2557   -1.4178    0.1973 C   0  0  1  0  0  0  0  0  0  0  0  0
    1.5093    0.8427    0.1677 C   0  0  2  0  0  0  0  0  0  0  0  0
    1.3518   -2.2488   -0.4710 C   0  0  0  0  0  0  0  0  0  0  0  0
    1.4844    2.3357   -0.1522 C   0  0  0  0  0  0  0  0  0  0  0  0
    0.1239    0.1162   -1.3184 H   0  0  0  0  0  0  0  0  0  0  0  0
   -0.7050   -1.8892   -0.0251 H   0  0  0  0  0  0  0  0  0  0  0  0
    1.7056    0.7268    1.2405 H   0  0  0  0  0  0  0  0  0  0  0  0
    1.4401   -1.9911   -1.5311 H   0  0  0  0  0  0  0  0  0  0  0  0
    2.3160   -2.1092    0.0268 H   0  0  0  0  0  0  0  0  0  0  0  0
    0.6635    2.8392    0.3671 H   0  0  0  0  0  0  0  0  0  0  0  0
    1.3767    2.4934   -1.2306 H   0  0  0  0  0  0  0  0  0  0  0  0
   -0.2863   -0.9769    2.0197 H   0  0  0  0  0  0  0  0  0  0  0  0
    3.4195    0.7446   -0.2525 H   0  0  0  0  0  0  0  0  0  0  0  0
    1.7842   -4.1051   -0.8461 H   0  0  0  0  0  0  0  0  0  0  0  0
    2.6441    3.8867    0.0207 H   0  0  0  0  0  0  0  0  0  0  0  0
   -3.6335   -1.3094    0.3068 H   0  0  0  0  0  0  0  0  0  0  0  0
   -4.1866    1.6958    0.2402 H   0  0  0  0  0  0  0  0  0  0  0  0
  1  2  1  0  0  0  0
  1  7  1  0  0  0  0
  1  8  1  0  0  0  0
  1  9  2  0  0  0  0
  2 10  1  0  0  0  0
  3 11  1  0  0  0  0
  3 22  1  0  0  0  0
  4 12  1  0  0  0  0
  4 23  1  0  0  0  0
  5 13  1  0  0  0  0
  5 24  1  0  0  0  0
  6 14  1  0  0  0  0
  6 25  1  0  0  0  0
  7 26  1  0  0  0  0
  8 27  1  0  0  0  0
 10 11  1  0  0  0  0
 10 12  1  0  0  0  0
 10 15  1  0  0  0  0
 11 13  1  0  0  0  0
 11 16  1  0  0  0  0
 12 14  1  0  0  0  0
 12 17  1  0  0  0  0
 13 18  1  0  0  0  0
 13 19  1  0  0  0  0
 14 20  1  0  0  0  0
 14 21  1  0  0  0  0
M  END
> <PUBCHEM_COMPOUND_CID>
129710438

> <PUBCHEM_CONFORMER_RMSD>
0.6

> <PUBCHEM_CONFORMER_DIVERSEORDER>
1
194
136
109
133
144
78
40
137
155
190
24
101
119
189
77
128
59
204
138
75
191
142
104
196
180
188
117
51
203
83
22
58
184
151
70
168
46
72
146
153
107
118
134
35
65
183
201
111
106
202
147
141
76
131
74
175
164
68
160
130
85
113
91
81
176
96
166
60
54
79
171
158
105
86
116
33
30
199
148
61
94
177
19
55
99
174
170
129
120
161
38
173
80
11
165
28
169
84
20
110
197
62
140
192
87
172
43
100
18
123
88
154
29
185
66
149
31
157
198
122
195
124
115
92
150
186
159
44
163
50
57
47
103
200
69
156
179
14
4
41
108
114
143
7
162
32
45
48
125
182
135
26
193
152
145
97
37
8
89
121
52
6
178
39
82
90
27
93
21
187
126
13
15
73
139
67
56
25
34
132
71
167
10
95
64
36
63
53
102
42
112
16
12
2
17
23
49
9
98
127
3
5
181

> <PUBCHEM_MMFF94_PARTIAL_CHARGES>
20
1 1.51
10 0.28
11 0.28
12 0.28
13 0.28
14 0.28
2 -0.55
22 0.4
23 0.4
24 0.4
25 0.4
26 0.5
27 0.5
3 -0.68
4 -0.68
5 -0.68
6 -0.68
7 -0.77
8 -0.77
9 -0.7

> <PUBCHEM_EFFECTIVE_ROTOR_COUNT>
6

> <PUBCHEM_PHARMACOPHORE_FEATURES>
12
1 3 acceptor
1 3 donor
1 4 acceptor
1 4 donor
1 5 acceptor
1 5 donor
1 6 acceptor
1 6 donor
1 7 acceptor
1 8 acceptor
1 9 acceptor
4 1 7 8 9 anion

> <PUBCHEM_HEAVY_ATOM_COUNT>
14

> <PUBCHEM_ATOM_DEF_STEREO_COUNT>
2

> <PUBCHEM_ATOM_UDEF_STEREO_COUNT>
0

> <PUBCHEM_BOND_DEF_STEREO_COUNT>
0

> <PUBCHEM_BOND_UDEF_STEREO_COUNT>
0

> <PUBCHEM_ISOTOPIC_ATOM_COUNT>
0

> <PUBCHEM_COMPONENT_COUNT>
1

> <PUBCHEM_CACTVS_TAUTO_COUNT>
1

> <PUBCHEM_CONFORMER_ID>
07BB396600000001

> <PUBCHEM_MMFF94_ENERGY>
-2.4173

> <PUBCHEM_FEATURE_SELFOVERLAP>
60.947

> <PUBCHEM_SHAPE_FINGERPRINT>
1 1 18410293627013969726
12138202 97 17905598153501428036
14648413 74 18338803295329822819
16945 1 18412263904474402580
17990270 104 18338795590132444699
20645477 70 18336256839849414903
20871998 184 17615700964660478610
21028194 46 18188492500638530116
21160774 45 17761482995490310895
21524375 3 18117270561344737200
23211744 41 18040992994423948953
23402539 116 17335056144978018151
23419403 2 16453832450829351042
23552423 10 18343298141777031245
25 1 18336274465614638268
2748010 2 18263934413041776876
305870 269 18411412938425591128
4175511 71 17764321547913508665
5084963 1 17822858692013884925
6333449 129 17763464315221951872
7364860 26 18340207384320794921
81228 2 17326051157799615872

> <PUBCHEM_SHAPE_MULTIPOLES>
245.01
4.07
3.4
1
2.75
1.28
-0.04
-2.25
-0.25
-3
-0.05
0.38
0.21
0.23

> <PUBCHEM_SHAPE_SELFOVERLAP>
452.617

> <PUBCHEM_SHAPE_VOLUME>
154.7

> <PUBCHEM_COORDINATE_TYPE>
2
5
10

$$$$
