140436183
  -OEChem-02062310123D

 27 26  0     1  0  0  0  0  0999 V2000
    2.3352    0.9467   -0.0148 P   0  0  0  0  0  0  0  0  0  0  0  0
    1.0555    0.1403   -0.5799 O   0  0  0  0  0  0  0  0  0  0  0  0
   -1.7745   -1.8163    0.6953 O   0  0  0  0  0  0  0  0  0  0  0  0
   -1.8356    0.9676    1.1505 O   0  0  0  0  0  0  0  0  0  0  0  0
    1.2064   -2.6952   -0.8724 O   0  0  0  0  0  0  0  0  0  0  0  0
   -4.0176    1.5246   -0.5102 O   0  0  0  0  0  0  0  0  0  0  0  0
    1.7029    1.9596    1.0757 O   0  0  0  0  0  0  0  0  0  0  0  0
    2.7138    1.9193   -1.2501 O   0  0  0  0  0  0  0  0  0  0  0  0
    3.4607    0.0881    0.4838 O   0  0  0  0  0  0  0  0  0  0  0  0
   -1.0877   -0.9040   -0.1701 C   0  0  2  0  0  0  0  0  0  0  0  0
    0.3680   -0.7397    0.3071 C   0  0  1  0  0  0  0  0  0  0  0  0
   -1.9012    0.4044   -0.1662 C   0  0  1  0  0  0  0  0  0  0  0  0
    1.1490   -2.0517    0.3904 C   0  0  0  0  0  0  0  0  0  0  0  0
   -3.3747    0.2562   -0.5391 C   0  0  0  0  0  0  0  0  0  0  0  0
   -1.1086   -1.3228   -1.1827 H   0  0  0  0  0  0  0  0  0  0  0  0
    0.3664   -0.3063    1.3147 H   0  0  0  0  0  0  0  0  0  0  0  0
   -1.4304    1.1325   -0.8372 H   0  0  0  0  0  0  0  0  0  0  0  0
    2.1736   -1.9005    0.7318 H   0  0  0  0  0  0  0  0  0  0  0  0
    0.6659   -2.7353    1.0967 H   0  0  0  0  0  0  0  0  0  0  0  0
   -3.8981   -0.3858    0.1768 H   0  0  0  0  0  0  0  0  0  0  0  0
   -3.4785   -0.1663   -1.5433 H   0  0  0  0  0  0  0  0  0  0  0  0
   -1.7610   -1.4391    1.5917 H   0  0  0  0  0  0  0  0  0  0  0  0
   -2.3311    1.8044    1.1340 H   0  0  0  0  0  0  0  0  0  0  0  0
    1.6987   -3.5248   -0.7499 H   0  0  0  0  0  0  0  0  0  0  0  0
   -4.9470    1.3791   -0.7563 H   0  0  0  0  0  0  0  0  0  0  0  0
    2.3060    2.5224    1.6063 H   0  0  0  0  0  0  0  0  0  0  0  0
    3.5298    2.4609   -1.1948 H   0  0  0  0  0  0  0  0  0  0  0  0
  1  2  1  0  0  0  0
  1  7  1  0  0  0  0
  1  8  1  0  0  0  0
  1  9  2  0  0  0  0
  2 11  1  0  0  0  0
  3 10  1  0  0  0  0
  3 22  1  0  0  0  0
  4 12  1  0  0  0  0
  4 23  1  0  0  0  0
  5 13  1  0  0  0  0
  5 24  1  0  0  0  0
  6 14  1  0  0  0  0
  6 25  1  0  0  0  0
  7 26  1  0  0  0  0
  8 27  1  0  0  0  0
 10 11  1  0  0  0  0
 10 12  1  0  0  0  0
 10 15  1  0  0  0  0
 11 13  1  0  0  0  0
 11 16  1  0  0  0  0
 12 14  1  0  0  0  0
 12 17  1  0  0  0  0
 13 18  1  0  0  0  0
 13 19  1  0  0  0  0
 14 20  1  0  0  0  0
 14 21  1  0  0  0  0
M  END
> <PUBCHEM_COMPOUND_CID>
140436183

> <PUBCHEM_CONFORMER_RMSD>
0.6

> <PUBCHEM_CONFORMER_DIVERSEORDER>
1
224
266
183
63
10
256
158
263
96
218
114
78
236
106
277
117
192
274
221
243
67
259
34
102
23
276
21
98
235
72
189
268
253
116
244
269
174
275
155
215
166
125
39
234
232
71
229
126
199
93
196
30
270
9
141
68
59
89
104
207
245
293
286
81
123
55
119
169
219
27
105
188
46
131
159
139
58
83
35
92
41
176
202
109
50
140
108
40
283
288
150
112
97
111
261
38
281
249
251
175
197
179
255
122
14
129
258
86
200
76
210
213
29
220
247
285
135
238
54
180
137
177
56
2
13
252
64
77
84
225
237
120
284
143
42
208
149
230
168
124
205
257
233
267
151
216
287
90
292
94
154
160
167
163
31
52
44
265
24
101
121
57
290
239
248
95
47
26
280
115
272
279
22
278
5
152
43
146
103
178
132
70
134
191
18
133
222
79
128
80
241
195
182
231
181
91
33
61
15
170
250
147
4
228
32
223
144
127
48
36
107
173
172
204
185
12
227
16
148
11
53
240
264
28
85
82
161
19
217
262
194
25
201
226
17
254
214
74
242
212
7
289
3
130
273
203
198
246
113
136
187
45
87
37
138
65
184
49
153
75
291
88
99
162
171
156
66
209
164
211
8
69
110
260
271
157
145
165
100
20
51
282
206
73
6
60
193
186
118
62
142
190

> <PUBCHEM_MMFF94_PARTIAL_CHARGES>
20
1 1.51
10 0.28
11 0.28
12 0.28
13 0.28
14 0.28
2 -0.55
22 0.4
23 0.4
24 0.4
25 0.4
26 0.5
27 0.5
3 -0.68
4 -0.68
5 -0.68
6 -0.68
7 -0.77
8 -0.77
9 -0.7

> <PUBCHEM_EFFECTIVE_ROTOR_COUNT>
6

> <PUBCHEM_PHARMACOPHORE_FEATURES>
12
1 3 acceptor
1 3 donor
1 4 acceptor
1 4 donor
1 5 acceptor
1 5 donor
1 6 acceptor
1 6 donor
1 7 acceptor
1 8 acceptor
1 9 acceptor
4 1 7 8 9 anion

> <PUBCHEM_HEAVY_ATOM_COUNT>
14

> <PUBCHEM_ATOM_DEF_STEREO_COUNT>
3

> <PUBCHEM_ATOM_UDEF_STEREO_COUNT>
0

> <PUBCHEM_BOND_DEF_STEREO_COUNT>
0

> <PUBCHEM_BOND_UDEF_STEREO_COUNT>
0

> <PUBCHEM_ISOTOPIC_ATOM_COUNT>
0

> <PUBCHEM_COMPONENT_COUNT>
1

> <PUBCHEM_CACTVS_TAUTO_COUNT>
-1

> <PUBCHEM_CONFORMER_ID>
085EE2D700000001

> <PUBCHEM_MMFF94_ENERGY>
-4.3012

> <PUBCHEM_FEATURE_SELFOVERLAP>
60.952

> <PUBCHEM_SHAPE_FINGERPRINT>
1 1 18411974767619187206
11031198 65 18341897389579976591
12932764 1 17984710179756775118
13380535 21 18337966644290769339
13380535 76 18408879637928629955
14648413 74 18335988562532082459
14897335 6 18410848850463858031
15775835 57 18262236724186420404
16945 1 18263096426299198646
170605 34 18260546714716414211
18186145 218 17916032432759655400
20645476 183 18044662129345688268
21028194 46 18336827597124776986
21524375 3 18336539503666968023
21947302 44 18261670377008495213
2748010 2 18196376033390443496
305870 269 18410848889218738578
5084963 1 17969497289619767690
7364860 26 18271521975133823390
81228 2 17116917466396959170

> <PUBCHEM_SHAPE_MULTIPOLES>
245.01
5.44
2.42
0.98
2.63
0.96
0.01
-3.1
-0.68
-1.04
-0.18
-0.2
-0.21
0.12

> <PUBCHEM_SHAPE_SELFOVERLAP>
452.363

> <PUBCHEM_SHAPE_VOLUME>
155

> <PUBCHEM_COORDINATE_TYPE>
2
5
10

$$$$
