145809584
  -OEChem-02062310123D

 31 30  0     1  0  0  0  0  0999 V2000
   -2.5036   -1.0182   -0.0589 P   0  0  0  0  0  0  0  0  0  0  0  0
   -2.0133    0.5113    0.0708 O   0  0  0  0  0  0  0  0  0  0  0  0
   -0.2562    1.3105   -1.9175 O   0  0  0  0  0  0  0  0  0  0  0  0
    2.3979    0.5990   -1.8661 O   0  0  0  0  0  0  0  0  0  0  0  0
    3.7615    0.2346    0.5174 O   0  0  0  0  0  0  0  0  0  0  0  0
   -1.4221    2.3121    2.0845 O   0  0  0  0  0  0  0  0  0  0  0  0
    2.9192   -2.2755    1.2679 O   0  0  0  0  0  0  0  0  0  0  0  0
   -2.1706   -1.4038   -1.5937 O   0  0  0  0  0  0  0  0  0  0  0  0
   -4.1138   -0.8683   -0.0542 O   0  0  0  0  0  0  0  0  0  0  0  0
   -1.9514   -1.9575    0.9730 O   0  0  0  0  0  0  0  0  0  0  0  0
    0.2194    0.5034   -0.8409 C   0  0  1  0  0  0  0  0  0  0  0  0
    1.7150    0.7910   -0.6275 C   0  0  1  0  0  0  0  0  0  0  0  0
   -0.6425    0.7513    0.4135 C   0  0  1  0  0  0  0  0  0  0  0  0
    2.3646   -0.0827    0.4643 C   0  0  1  0  0  0  0  0  0  0  0  0
   -0.5614    2.1775    0.9559 C   0  0  0  0  0  0  0  0  0  0  0  0
    2.2571   -1.5849    0.2114 C   0  0  0  0  0  0  0  0  0  0  0  0
    0.1037   -0.5261   -1.1902 H   0  0  0  0  0  0  0  0  0  0  0  0
    1.8683    1.8499   -0.3908 H   0  0  0  0  0  0  0  0  0  0  0  0
   -0.3705    0.0592    1.2175 H   0  0  0  0  0  0  0  0  0  0  0  0
    1.9529    0.1632    1.4490 H   0  0  0  0  0  0  0  0  0  0  0  0
   -0.8940    2.9017    0.2052 H   0  0  0  0  0  0  0  0  0  0  0  0
    0.4524    2.4299    1.2777 H   0  0  0  0  0  0  0  0  0  0  0  0
    2.7507   -1.8654   -0.7245 H   0  0  0  0  0  0  0  0  0  0  0  0
    1.2171   -1.9203    0.1913 H   0  0  0  0  0  0  0  0  0  0  0  0
   -1.2019    1.1150   -2.0324 H   0  0  0  0  0  0  0  0  0  0  0  0
    3.3424    0.7687   -1.7083 H   0  0  0  0  0  0  0  0  0  0  0  0
    4.1569   -0.3075    1.2214 H   0  0  0  0  0  0  0  0  0  0  0  0
   -1.3434    3.2306    2.3943 H   0  0  0  0  0  0  0  0  0  0  0  0
    2.8393   -3.2263    1.0802 H   0  0  0  0  0  0  0  0  0  0  0  0
   -2.3335   -2.3217   -1.8984 H   0  0  0  0  0  0  0  0  0  0  0  0
   -4.6657   -1.6789   -0.0307 H   0  0  0  0  0  0  0  0  0  0  0  0
  1  2  1  0  0  0  0
  1  8  1  0  0  0  0
  1  9  1  0  0  0  0
  1 10  2  0  0  0  0
  2 13  1  0  0  0  0
  3 11  1  0  0  0  0
  3 25  1  0  0  0  0
  4 12  1  0  0  0  0
  4 26  1  0  0  0  0
  5 14  1  0  0  0  0
  5 27  1  0  0  0  0
  6 15  1  0  0  0  0
  6 28  1  0  0  0  0
  7 16  1  0  0  0  0
  7 29  1  0  0  0  0
  8 30  1  0  0  0  0
  9 31  1  0  0  0  0
 11 12  1  0  0  0  0
 11 13  1  0  0  0  0
 11 17  1  0  0  0  0
 12 14  1  0  0  0  0
 12 18  1  0  0  0  0
 13 15  1  0  0  0  0
 13 19  1  0  0  0  0
 14 16  1  0  0  0  0
 14 20  1  0  0  0  0
 15 21  1  0  0  0  0
 15 22  1  0  0  0  0
 16 23  1  0  0  0  0
 16 24  1  0  0  0  0
M  END
> <PUBCHEM_COMPOUND_CID>
145809584

> <PUBCHEM_CONFORMER_RMSD>
0.8

> <PUBCHEM_CONFORMER_DIVERSEORDER>
1
47
83
10
53
107
111
102
32
27
65
26
64
90
16
96
72
108
7
31
33
116
101
76
50
61
39
66
58
110
57
75
34
98
84
88
109
45
46
15
37
99
105
71
78
24
69
4
70
103
54
38
106
89
95
30
82
93
60
29
48
23
91
35
9
49
80
115
63
6
67
87
81
36
74
97
100
77
25
3
59
68
21
62
43
112
52
13
92
44
28
8
12
73
79
18
19
5
20
2
42
17
114
41
86
94
11
14
51
56
85
104
55
40
113
22

> <PUBCHEM_MMFF94_PARTIAL_CHARGES>
23
1 1.51
10 -0.7
11 0.28
12 0.28
13 0.28
14 0.28
15 0.28
16 0.28
2 -0.55
25 0.4
26 0.4
27 0.4
28 0.4
29 0.4
3 -0.68
30 0.5
31 0.5
4 -0.68
5 -0.68
6 -0.68
7 -0.68
8 -0.77
9 -0.77

> <PUBCHEM_EFFECTIVE_ROTOR_COUNT>
7

> <PUBCHEM_PHARMACOPHORE_FEATURES>
14
1 10 acceptor
1 3 acceptor
1 3 donor
1 4 acceptor
1 4 donor
1 5 acceptor
1 5 donor
1 6 acceptor
1 6 donor
1 7 acceptor
1 7 donor
1 8 acceptor
1 9 acceptor
4 1 8 9 10 anion

> <PUBCHEM_HEAVY_ATOM_COUNT>
16

> <PUBCHEM_ATOM_DEF_STEREO_COUNT>
4

> <PUBCHEM_ATOM_UDEF_STEREO_COUNT>
0

> <PUBCHEM_BOND_DEF_STEREO_COUNT>
0

> <PUBCHEM_BOND_UDEF_STEREO_COUNT>
0

> <PUBCHEM_ISOTOPIC_ATOM_COUNT>
0

> <PUBCHEM_COMPONENT_COUNT>
1

> <PUBCHEM_CACTVS_TAUTO_COUNT>
-1

> <PUBCHEM_CONFORMER_ID>
08B0E0B000000001

> <PUBCHEM_MMFF94_ENERGY>
2.4205

> <PUBCHEM_FEATURE_SELFOVERLAP>
71.119

> <PUBCHEM_SHAPE_FINGERPRINT>
12716301 132 17344370863869611660
14350558 41 18187081771533127222
14787075 74 17405159902769248308
15076042 46 18129660773109914778
15375462 189 18341327907002604875
16945 1 18188773984263100309
18186145 218 14201387318170664117
20201158 50 18040711506462557922
20671657 53 17603856785120125966
20711985 344 17843431559834689721
22713034 7 17605301599201774528
22802520 49 14201407113495609061
23419403 2 16606799892613698706
23500284 5 18410014312474601787
23598291 2 18118430391609250156
23598294 1 17987820513172968817
25610 171 17346036654113910200
81228 2 18058753328612505705

> <PUBCHEM_SHAPE_MULTIPOLES>
280.3
5.32
2.32
1.63
0.09
0.08
-0.35
-2.81
0.56
-0.45
1.12
0.1
0.5
-1.19

> <PUBCHEM_SHAPE_SELFOVERLAP>
523.821

> <PUBCHEM_SHAPE_VOLUME>
175.5

> <PUBCHEM_COORDINATE_TYPE>
2
5
10

$$$$
