14620017
  -OEChem-02062310123D

 31 30  0     1  0  0  0  0  0999 V2000
   -3.1123   -1.0170    0.0533 P   0  0  0  0  0  0  0  0  0  0  0  0
    1.7598    2.0061    1.0135 O   0  0  0  0  0  0  0  0  0  0  0  0
    1.8738    1.1862   -1.7238 O   0  0  0  0  0  0  0  0  0  0  0  0
   -0.9730    2.5718    1.0786 O   0  0  0  0  0  0  0  0  0  0  0  0
    3.3507   -1.1419   -1.3109 O   0  0  0  0  0  0  0  0  0  0  0  0
   -1.9409    0.0339    0.4164 O   0  0  0  0  0  0  0  0  0  0  0  0
    3.7438   -2.1500    1.2195 O   0  0  0  0  0  0  0  0  0  0  0  0
   -2.5960   -1.7143   -1.3114 O   0  0  0  0  0  0  0  0  0  0  0  0
   -4.3085   -0.0528   -0.4513 O   0  0  0  0  0  0  0  0  0  0  0  0
   -3.4839   -1.9636    1.1569 O   0  0  0  0  0  0  0  0  0  0  0  0
    0.8229    1.0917    0.4455 C   0  0  2  0  0  0  0  0  0  0  0  0
    1.5256    0.2938   -0.6657 C   0  0  2  0  0  0  0  0  0  0  0  0
   -0.4246    1.8589   -0.0374 C   0  0  1  0  0  0  0  0  0  0  0  0
    2.7838   -0.4576   -0.1861 C   0  0  1  0  0  0  0  0  0  0  0  0
   -1.5358    0.9644   -0.5849 C   0  0  0  0  0  0  0  0  0  0  0  0
    2.5144   -1.5096    0.8875 C   0  0  0  0  0  0  0  0  0  0  0  0
    0.5295    0.4175    1.2575 H   0  0  0  0  0  0  0  0  0  0  0  0
    0.8362   -0.4381   -1.1004 H   0  0  0  0  0  0  0  0  0  0  0  0
   -0.1458    2.6150   -0.7788 H   0  0  0  0  0  0  0  0  0  0  0  0
    3.5558    0.2418    0.1550 H   0  0  0  0  0  0  0  0  0  0  0  0
   -1.2097    0.4324   -1.4825 H   0  0  0  0  0  0  0  0  0  0  0  0
   -2.4003    1.5848   -0.8437 H   0  0  0  0  0  0  0  0  0  0  0  0
    1.8227   -2.2798    0.5313 H   0  0  0  0  0  0  0  0  0  0  0  0
    2.1154   -1.0673    1.8033 H   0  0  0  0  0  0  0  0  0  0  0  0
    1.2957    2.5057    1.7068 H   0  0  0  0  0  0  0  0  0  0  0  0
    2.4884    1.8468   -1.3607 H   0  0  0  0  0  0  0  0  0  0  0  0
   -1.2465    1.9164    1.7433 H   0  0  0  0  0  0  0  0  0  0  0  0
    3.5265   -0.4754   -1.9970 H   0  0  0  0  0  0  0  0  0  0  0  0
    4.0981   -2.5409    0.4025 H   0  0  0  0  0  0  0  0  0  0  0  0
   -3.1234   -2.4443   -1.7003 H   0  0  0  0  0  0  0  0  0  0  0  0
   -5.1843   -0.4475   -0.6499 H   0  0  0  0  0  0  0  0  0  0  0  0
  1  6  1  0  0  0  0
  1  8  1  0  0  0  0
  1  9  1  0  0  0  0
  1 10  2  0  0  0  0
  2 11  1  0  0  0  0
  2 25  1  0  0  0  0
  3 12  1  0  0  0  0
  3 26  1  0  0  0  0
  4 13  1  0  0  0  0
  4 27  1  0  0  0  0
  5 14  1  0  0  0  0
  5 28  1  0  0  0  0
  6 15  1  0  0  0  0
  7 16  1  0  0  0  0
  7 29  1  0  0  0  0
  8 30  1  0  0  0  0
  9 31  1  0  0  0  0
 11 12  1  0  0  0  0
 11 13  1  0  0  0  0
 11 17  1  0  0  0  0
 12 14  1  0  0  0  0
 12 18  1  0  0  0  0
 13 15  1  0  0  0  0
 13 19  1  0  0  0  0
 14 16  1  0  0  0  0
 14 20  1  0  0  0  0
 15 21  1  0  0  0  0
 15 22  1  0  0  0  0
 16 23  1  0  0  0  0
 16 24  1  0  0  0  0
M  END
> <PUBCHEM_COMPOUND_CID>
14620017

> <PUBCHEM_CONFORMER_RMSD>
0.8

> <PUBCHEM_CONFORMER_DIVERSEORDER>
1
15
80
32
81
9
79
82
21
27
47
53
14
42
55
46
5
50
40
6
76
12
60
75
57
49
61
72
23
43
34
51
65
22
45
66
78
36
70
71
25
33
68
31
39
74
64
30
10
62
16
73
28
8
18
38
67
63
35
29
69
13
77
7
48
3
24
26
4
44
19
2
54
41
11
59
56
58
37
52
20
17

> <PUBCHEM_MMFF94_PARTIAL_CHARGES>
23
1 1.51
10 -0.7
11 0.28
12 0.28
13 0.28
14 0.28
15 0.28
16 0.28
2 -0.68
25 0.4
26 0.4
27 0.4
28 0.4
29 0.4
3 -0.68
30 0.5
31 0.5
4 -0.68
5 -0.68
6 -0.55
7 -0.68
8 -0.77
9 -0.77

> <PUBCHEM_EFFECTIVE_ROTOR_COUNT>
7

> <PUBCHEM_PHARMACOPHORE_FEATURES>
14
1 10 acceptor
1 2 acceptor
1 2 donor
1 3 acceptor
1 3 donor
1 4 acceptor
1 4 donor
1 5 acceptor
1 5 donor
1 7 acceptor
1 7 donor
1 8 acceptor
1 9 acceptor
4 1 8 9 10 anion

> <PUBCHEM_HEAVY_ATOM_COUNT>
16

> <PUBCHEM_ATOM_DEF_STEREO_COUNT>
4

> <PUBCHEM_ATOM_UDEF_STEREO_COUNT>
0

> <PUBCHEM_BOND_DEF_STEREO_COUNT>
0

> <PUBCHEM_BOND_UDEF_STEREO_COUNT>
0

> <PUBCHEM_ISOTOPIC_ATOM_COUNT>
0

> <PUBCHEM_COMPONENT_COUNT>
1

> <PUBCHEM_CACTVS_TAUTO_COUNT>
1

> <PUBCHEM_CONFORMER_ID>
00DF157100000001

> <PUBCHEM_MMFF94_ENERGY>
0.3354

> <PUBCHEM_FEATURE_SELFOVERLAP>
71.121

> <PUBCHEM_SHAPE_FINGERPRINT>
10618630 7 18410291410679092875
11769659 78 18261390001554026756
12553582 1 18343868818081498367
12932764 1 18128263483252638901
13296908 3 18338236093522256645
14115302 16 18263085422598638061
14251764 38 11815353533167724619
14252887 29 17988652942401653160
14787075 74 18268709592721852392
15375462 189 18340209699160513358
18186145 218 14417848163867662421
19107657 9 8358263686850577311
19766037 51 18333736831485093499
20291156 8 18408325479588647206
20645477 70 18272083959151827775
20671657 53 17821729412099487126
232386 152 18339075978450547118
23500284 5 18409172077967013819
23598291 2 18044966517899369292
5902787 121 18341608158193146208
81228 2 17986125023599545137

> <PUBCHEM_SHAPE_MULTIPOLES>
280.3
6.73
2.55
1.32
2.41
0.29
0.21
-5.1
0.01
-0.22
-0.85
-0.52
-0.1
-0.43

> <PUBCHEM_SHAPE_SELFOVERLAP>
522.55

> <PUBCHEM_SHAPE_VOLUME>
175.5

> <PUBCHEM_COORDINATE_TYPE>
2
5
10

$$$$
