16760431
  -OEChem-02062310153D

 29 29  0     1  0  0  0  0  0999 V2000
   -3.6558   -0.3931    0.1416 P   0  0  0  0  0  0  0  0  0  0  0  0
    0.6535   -0.6792    0.4289 O   0  0  0  0  0  0  0  0  0  0  0  0
    2.9432    1.1900    1.0324 O   0  0  0  0  0  0  0  0  0  0  0  0
    1.1268    2.8208   -0.1903 O   0  0  0  0  0  0  0  0  0  0  0  0
    1.8859   -1.1917   -1.5072 O   0  0  0  0  0  0  0  0  0  0  0  0
   -2.1101   -0.1759    0.5695 O   0  0  0  0  0  0  0  0  0  0  0  0
    4.1655   -1.6139    0.0802 O   0  0  0  0  0  0  0  0  0  0  0  0
   -3.5593   -0.9774   -1.3631 O   0  0  0  0  0  0  0  0  0  0  0  0
   -4.1842    1.1191   -0.0798 O   0  0  0  0  0  0  0  0  0  0  0  0
   -4.4691   -1.2150    1.0982 O   0  0  0  0  0  0  0  0  0  0  0  0
    2.4194    0.7541   -0.2175 C   0  0  2  0  0  0  0  0  0  0  0  0
    1.1035    1.4483   -0.5227 C   0  0  1  0  0  0  0  0  0  0  0  0
    1.9683   -0.7070   -0.1642 C   0  0  1  0  0  0  0  0  0  0  0  0
    0.1173    0.6535    0.3235 C   0  0  1  0  0  0  0  0  0  0  0  0
   -1.2744    0.5902   -0.2825 C   0  0  0  0  0  0  0  0  0  0  0  0
    2.8695   -1.6229    0.6530 C   0  0  0  0  0  0  0  0  0  0  0  0
    3.1736    0.9576   -0.9841 H   0  0  0  0  0  0  0  0  0  0  0  0
    0.8660    1.3610   -1.5893 H   0  0  0  0  0  0  0  0  0  0  0  0
    0.0462    1.0526    1.3429 H   0  0  0  0  0  0  0  0  0  0  0  0
   -1.2373    0.1025   -1.2621 H   0  0  0  0  0  0  0  0  0  0  0  0
   -1.6868    1.5972   -0.3968 H   0  0  0  0  0  0  0  0  0  0  0  0
    2.4904   -2.6505    0.6221 H   0  0  0  0  0  0  0  0  0  0  0  0
    2.9248   -1.3204    1.7037 H   0  0  0  0  0  0  0  0  0  0  0  0
    2.2917    0.9979    1.7272 H   0  0  0  0  0  0  0  0  0  0  0  0
    0.2307    3.1716   -0.3286 H   0  0  0  0  0  0  0  0  0  0  0  0
    1.7753   -0.4518   -2.1248 H   0  0  0  0  0  0  0  0  0  0  0  0
    4.7173   -2.2133    0.6109 H   0  0  0  0  0  0  0  0  0  0  0  0
   -4.3828   -1.2549   -1.8182 H   0  0  0  0  0  0  0  0  0  0  0  0
   -5.1368    1.2672   -0.2609 H   0  0  0  0  0  0  0  0  0  0  0  0
  1  6  1  0  0  0  0
  1  8  1  0  0  0  0
  1  9  1  0  0  0  0
  1 10  2  0  0  0  0
  2 13  1  0  0  0  0
  2 14  1  0  0  0  0
  3 11  1  0  0  0  0
  3 24  1  0  0  0  0
  4 12  1  0  0  0  0
  4 25  1  0  0  0  0
  5 13  1  0  0  0  0
  5 26  1  0  0  0  0
  6 15  1  0  0  0  0
  7 16  1  0  0  0  0
  7 27  1  0  0  0  0
  8 28  1  0  0  0  0
  9 29  1  0  0  0  0
 11 12  1  0  0  0  0
 11 13  1  0  0  0  0
 11 17  1  0  0  0  0
 12 14  1  0  0  0  0
 12 18  1  0  0  0  0
 13 16  1  0  0  0  0
 14 15  1  0  0  0  0
 14 19  1  0  0  0  0
 15 20  1  0  0  0  0
 15 21  1  0  0  0  0
 16 22  1  0  0  0  0
 16 23  1  0  0  0  0
M  END
> <PUBCHEM_COMPOUND_CID>
16760431

> <PUBCHEM_CONFORMER_RMSD>
0.6

> <PUBCHEM_CONFORMER_DIVERSEORDER>
1
49
19
54
40
63
60
14
37
62
57
12
17
55
61
24
15
4
51
21
31
13
10
28
59
44
64
36
25
22
27
33
11
30
16
29
9
18
56
52
41
45
7
26
39
32
23
58
6
20
46
3
53
48
35
42
47
2
43
50
5
34
8
38

> <PUBCHEM_MMFF94_PARTIAL_CHARGES>
22
1 1.51
10 -0.7
11 0.28
12 0.28
13 0.56
14 0.28
15 0.28
16 0.28
2 -0.56
24 0.4
25 0.4
26 0.4
27 0.4
28 0.5
29 0.5
3 -0.68
4 -0.68
5 -0.68
6 -0.55
7 -0.68
8 -0.77
9 -0.77

> <PUBCHEM_EFFECTIVE_ROTOR_COUNT>
5

> <PUBCHEM_PHARMACOPHORE_FEATURES>
14
1 10 acceptor
1 2 acceptor
1 3 acceptor
1 3 donor
1 4 acceptor
1 4 donor
1 5 acceptor
1 5 donor
1 7 acceptor
1 7 donor
1 8 acceptor
1 9 acceptor
4 1 8 9 10 anion
5 2 11 12 13 14 rings

> <PUBCHEM_HEAVY_ATOM_COUNT>
16

> <PUBCHEM_ATOM_DEF_STEREO_COUNT>
4

> <PUBCHEM_ATOM_UDEF_STEREO_COUNT>
0

> <PUBCHEM_BOND_DEF_STEREO_COUNT>
0

> <PUBCHEM_BOND_UDEF_STEREO_COUNT>
0

> <PUBCHEM_ISOTOPIC_ATOM_COUNT>
0

> <PUBCHEM_COMPONENT_COUNT>
1

> <PUBCHEM_CACTVS_TAUTO_COUNT>
1

> <PUBCHEM_CONFORMER_ID>
00FFBE6F00000001

> <PUBCHEM_MMFF94_ENERGY>
7.2707

> <PUBCHEM_FEATURE_SELFOVERLAP>
71.148

> <PUBCHEM_SHAPE_FINGERPRINT>
10922523 26 18341897359879377901
12032990 46 18335422327002149506
12932764 1 17845658165718272225
13296908 3 18334016103459864915
13705890 14 18260548934982339250
14252887 29 18201726106953560986
15442244 35 18338518534613921121
15477762 27 18335985354032789025
16945 1 18264201581730428796
18186145 218 17385720296914209865
20281475 54 18113905957105783503
20339313 130 18412833468672308401
20645477 70 18341325630875757639
20671657 53 18335427837297380289
20871998 22 18127980711064150478
21501925 9 18411131416435894194
221490 88 18188781659443647851
2255824 54 18337960085616985758
23402539 116 18340198592702380414
2748010 2 18265598919291359204
5104073 3 18410858750563916817
581208 293 18338513148439776880
7364860 26 18340490079168788720
81228 2 17978241456308363352
81539 233 18043530719148993500
9709674 26 18188777287520504891

> <PUBCHEM_SHAPE_MULTIPOLES>
280.3
7.76
1.98
1
7.28
0.8
0.19
-3.16
-0.77
-1.36
-0.01
0.15
-0.26
0.2

> <PUBCHEM_SHAPE_SELFOVERLAP>
550.719

> <PUBCHEM_SHAPE_VOLUME>
169.8

> <PUBCHEM_COORDINATE_TYPE>
2
5
10

$$$$
