191445
  -OEChem-02062310113D

 26 25  0     1  0  0  0  0  0999 V2000
    3.4628   -0.5245   -0.0734 P   0  0  0  0  0  0  0  0  0  0  0  0
   -1.0856   -0.4858    1.3766 O   0  0  0  0  0  0  0  0  0  0  0  0
   -0.0358    1.8262   -1.2854 O   0  0  0  0  0  0  0  0  0  0  0  0
    1.9452   -0.0526   -0.3740 O   0  0  0  0  0  0  0  0  0  0  0  0
   -2.9790    1.4211    0.5849 O   0  0  0  0  0  0  0  0  0  0  0  0
   -3.0607   -1.7231   -1.1205 O   0  0  0  0  0  0  0  0  0  0  0  0
   -4.3557   -0.8366    0.5166 O   0  0  0  0  0  0  0  0  0  0  0  0
    3.4396   -0.9192    1.4946 O   0  0  0  0  0  0  0  0  0  0  0  0
    4.2823    0.8694   -0.0940 O   0  0  0  0  0  0  0  0  0  0  0  0
    3.9923   -1.5847   -0.9943 O   0  0  0  0  0  0  0  0  0  0  0  0
   -1.0370    0.0744    0.0647 C   0  0  2  0  0  0  0  0  0  0  0  0
   -0.0613    1.2701    0.0291 C   0  0  1  0  0  0  0  0  0  0  0  0
   -2.4732    0.4567   -0.3296 C   0  0  1  0  0  0  0  0  0  0  0  0
    1.3726    0.9484    0.4553 C   0  0  0  0  0  0  0  0  0  0  0  0
   -3.4065   -0.7397   -0.2505 C   0  0  0  0  0  0  0  0  0  0  0  0
   -0.6710   -0.7016   -0.6189 H   0  0  0  0  0  0  0  0  0  0  0  0
   -0.4321    2.0492    0.7066 H   0  0  0  0  0  0  0  0  0  0  0  0
   -2.5310    0.8802   -1.3369 H   0  0  0  0  0  0  0  0  0  0  0  0
    1.9851    1.8529    0.3782 H   0  0  0  0  0  0  0  0  0  0  0  0
    1.3854    0.6085    1.4955 H   0  0  0  0  0  0  0  0  0  0  0  0
   -1.5170   -1.3548    1.3161 H   0  0  0  0  0  0  0  0  0  0  0  0
    0.5372    2.6114   -1.2625 H   0  0  0  0  0  0  0  0  0  0  0  0
   -2.8448    1.0795    1.4857 H   0  0  0  0  0  0  0  0  0  0  0  0
   -3.6609   -2.4963   -1.0557 H   0  0  0  0  0  0  0  0  0  0  0  0
    4.2465   -1.3028    1.8993 H   0  0  0  0  0  0  0  0  0  0  0  0
    5.2605    0.8459   -0.0257 H   0  0  0  0  0  0  0  0  0  0  0  0
  1  4  1  0  0  0  0
  1  8  1  0  0  0  0
  1  9  1  0  0  0  0
  1 10  2  0  0  0  0
  2 11  1  0  0  0  0
  2 21  1  0  0  0  0
  3 12  1  0  0  0  0
  3 22  1  0  0  0  0
  4 14  1  0  0  0  0
  5 13  1  0  0  0  0
  5 23  1  0  0  0  0
  6 15  1  0  0  0  0
  6 24  1  0  0  0  0
  7 15  2  0  0  0  0
  8 25  1  0  0  0  0
  9 26  1  0  0  0  0
 11 12  1  0  0  0  0
 11 13  1  0  0  0  0
 11 16  1  0  0  0  0
 12 14  1  0  0  0  0
 12 17  1  0  0  0  0
 13 15  1  0  0  0  0
 13 18  1  0  0  0  0
 14 19  1  0  0  0  0
 14 20  1  0  0  0  0
M  END
> <PUBCHEM_COMPOUND_CID>
191445

> <PUBCHEM_CONFORMER_RMSD>
0.8

> <PUBCHEM_CONFORMER_DIVERSEORDER>
1
44
28
23
16
40
19
36
13
25
8
6
41
3
34
20
22
45
5
11
42
37
27
35
43
15
30
32
12
9
7
17
31
14
39
38
21
26
10
24
18
4
33
29
2

> <PUBCHEM_MMFF94_PARTIAL_CHARGES>
21
1 1.51
10 -0.7
11 0.28
12 0.28
13 0.34
14 0.28
15 0.66
2 -0.68
21 0.4
22 0.4
23 0.4
24 0.5
25 0.5
26 0.5
3 -0.68
4 -0.55
5 -0.68
6 -0.65
7 -0.57
8 -0.77
9 -0.77

> <PUBCHEM_EFFECTIVE_ROTOR_COUNT>
6

> <PUBCHEM_PHARMACOPHORE_FEATURES>
13
1 10 acceptor
1 2 acceptor
1 2 donor
1 3 acceptor
1 3 donor
1 5 acceptor
1 5 donor
1 6 acceptor
1 7 acceptor
1 8 acceptor
1 9 acceptor
3 6 7 15 anion
4 1 8 9 10 anion

> <PUBCHEM_HEAVY_ATOM_COUNT>
15

> <PUBCHEM_ATOM_DEF_STEREO_COUNT>
3

> <PUBCHEM_ATOM_UDEF_STEREO_COUNT>
0

> <PUBCHEM_BOND_DEF_STEREO_COUNT>
0

> <PUBCHEM_BOND_UDEF_STEREO_COUNT>
0

> <PUBCHEM_ISOTOPIC_ATOM_COUNT>
0

> <PUBCHEM_COMPONENT_COUNT>
1

> <PUBCHEM_CACTVS_TAUTO_COUNT>
1

> <PUBCHEM_CONFORMER_ID>
0002EBD500000001

> <PUBCHEM_MMFF94_ENERGY>
-10.187

> <PUBCHEM_FEATURE_SELFOVERLAP>
66.089

> <PUBCHEM_SHAPE_FINGERPRINT>
10062212 137 18188196612004833915
11769659 78 18201150061618097303
13296908 3 18202563947603453988
14123260 362 9150890632719166159
14251710 61 18341336664367243807
14252887 29 18341617031590123106
15342816 4 18259702302797953638
17834072 33 18272374208926331676
18186145 218 13334741180816392508
19107657 9 10159696940876468186
20279233 1 17385726915532776688
20281407 28 18342739585575127560
20281475 54 18342737395110034772
20645477 70 18337667624219582975
20671657 53 17676203589196934532
20871999 31 17749104474441204509
212847 35 9655580721076240450
21293036 1 16877659088895381609
21524375 3 9511468818101856836
22485316 2 18412823577578877588
23402539 116 17676198044752669388
23559900 14 18060138696320763812
7364860 26 18193841676268906084

> <PUBCHEM_SHAPE_MULTIPOLES>
259.72
8.33
1.6
1.09
2.57
0.05
0.11
-3.38
-0.03
-0.16
-0.39
0.22
-0.16
-0.19

> <PUBCHEM_SHAPE_SELFOVERLAP>
489.675

> <PUBCHEM_SHAPE_VOLUME>
161.1

> <PUBCHEM_COORDINATE_TYPE>
2
5
10

$$$$
