20839100
  -OEChem-02062310133D

 29 28  0     1  0  0  0  0  0999 V2000
   -2.9541    0.6701    0.1743 P   0  0  0  0  0  0  0  0  0  0  0  0
    2.9085   -1.2209    1.2836 O   0  0  0  0  0  0  0  0  0  0  0  0
    0.1702   -2.2163    1.1231 O   0  0  0  0  0  0  0  0  0  0  0  0
   -1.7754   -0.3654    0.5612 O   0  0  0  0  0  0  0  0  0  0  0  0
    3.6405    0.0132   -1.2278 O   0  0  0  0  0  0  0  0  0  0  0  0
    2.8767    2.6984   -0.2239 O   0  0  0  0  0  0  0  0  0  0  0  0
   -1.6559   -1.4867   -1.8495 O   0  0  0  0  0  0  0  0  0  0  0  0
   -2.4068    2.0947    0.7093 O   0  0  0  0  0  0  0  0  0  0  0  0
   -4.1173    0.2969    1.2340 O   0  0  0  0  0  0  0  0  0  0  0  0
   -3.3764    0.6447   -1.2656 O   0  0  0  0  0  0  0  0  0  0  0  0
    1.9823   -0.9324    0.2308 C   0  0  1  0  0  0  0  0  0  0  0  0
    0.5508   -0.8753    0.7919 C   0  0  1  0  0  0  0  0  0  0  0  0
    2.4698    0.3457   -0.4673 C   0  0  1  0  0  0  0  0  0  0  0  0
   -0.5221   -0.2392   -0.1021 C   0  0  1  0  0  0  0  0  0  0  0  0
    2.8633    1.4653    0.4903 C   0  0  0  0  0  0  0  0  0  0  0  0
   -0.6540   -0.8930   -1.4623 C   0  0  0  0  0  0  0  0  0  0  0  0
    2.0550   -1.7774   -0.4661 H   0  0  0  0  0  0  0  0  0  0  0  0
    0.5648   -0.3410    1.7504 H   0  0  0  0  0  0  0  0  0  0  0  0
    1.7418    0.7016   -1.2007 H   0  0  0  0  0  0  0  0  0  0  0  0
   -0.3055    0.8222   -0.2592 H   0  0  0  0  0  0  0  0  0  0  0  0
    3.8607    1.3105    0.9143 H   0  0  0  0  0  0  0  0  0  0  0  0
    2.1325    1.5696    1.2977 H   0  0  0  0  0  0  0  0  0  0  0  0
    3.7894   -1.3114    0.8813 H   0  0  0  0  0  0  0  0  0  0  0  0
   -0.7278   -2.1803    1.4947 H   0  0  0  0  0  0  0  0  0  0  0  0
    0.2225   -0.8020   -2.1247 H   0  0  0  0  0  0  0  0  0  0  0  0
    3.9352    0.8236   -1.6777 H   0  0  0  0  0  0  0  0  0  0  0  0
    3.1246    3.3922    0.4108 H   0  0  0  0  0  0  0  0  0  0  0  0
   -2.9321    2.9032    0.5284 H   0  0  0  0  0  0  0  0  0  0  0  0
   -4.9931    0.7303    1.1492 H   0  0  0  0  0  0  0  0  0  0  0  0
  1  4  1  0  0  0  0
  1  8  1  0  0  0  0
  1  9  1  0  0  0  0
  1 10  2  0  0  0  0
  2 11  1  0  0  0  0
  2 23  1  0  0  0  0
  3 12  1  0  0  0  0
  3 24  1  0  0  0  0
  4 14  1  0  0  0  0
  5 13  1  0  0  0  0
  5 26  1  0  0  0  0
  6 15  1  0  0  0  0
  6 27  1  0  0  0  0
  7 16  2  0  0  0  0
  8 28  1  0  0  0  0
  9 29  1  0  0  0  0
 11 12  1  0  0  0  0
 11 13  1  0  0  0  0
 11 17  1  0  0  0  0
 12 14  1  0  0  0  0
 12 18  1  0  0  0  0
 13 15  1  0  0  0  0
 13 19  1  0  0  0  0
 14 16  1  0  0  0  0
 14 20  1  0  0  0  0
 15 21  1  0  0  0  0
 15 22  1  0  0  0  0
 16 25  1  0  0  0  0
M  END
> <PUBCHEM_COMPOUND_CID>
20839100

> <PUBCHEM_CONFORMER_RMSD>
0.8

> <PUBCHEM_CONFORMER_DIVERSEORDER>
1
68
57
49
22
51
73
17
44
9
24
40
76
34
3
13
61
7
42
79
19
27
10
39
77
74
78
71
62
15
21
58
26
67
47
43
14
29
28
6
20
66
45
5
75
65
81
36
80
56
50
48
35
23
37
2
54
63
69
4
16
12
59
60
18
38
31
32
55
53
70
30
41
52
72
25
11
64
33
8
46

> <PUBCHEM_MMFF94_PARTIAL_CHARGES>
23
1 1.51
10 -0.7
11 0.28
12 0.28
13 0.28
14 0.34
15 0.28
16 0.45
2 -0.68
23 0.4
24 0.4
25 0.06
26 0.4
27 0.4
28 0.5
29 0.5
3 -0.68
4 -0.55
5 -0.68
6 -0.68
7 -0.57
8 -0.77
9 -0.77

> <PUBCHEM_EFFECTIVE_ROTOR_COUNT>
7

> <PUBCHEM_PHARMACOPHORE_FEATURES>
13
1 10 acceptor
1 2 acceptor
1 2 donor
1 3 acceptor
1 3 donor
1 5 acceptor
1 5 donor
1 6 acceptor
1 6 donor
1 7 acceptor
1 8 acceptor
1 9 acceptor
4 1 8 9 10 anion

> <PUBCHEM_HEAVY_ATOM_COUNT>
16

> <PUBCHEM_ATOM_DEF_STEREO_COUNT>
4

> <PUBCHEM_ATOM_UDEF_STEREO_COUNT>
0

> <PUBCHEM_BOND_DEF_STEREO_COUNT>
0

> <PUBCHEM_BOND_UDEF_STEREO_COUNT>
0

> <PUBCHEM_ISOTOPIC_ATOM_COUNT>
0

> <PUBCHEM_COMPONENT_COUNT>
1

> <PUBCHEM_CACTVS_TAUTO_COUNT>
2

> <PUBCHEM_CONFORMER_ID>
013DFABC00000001

> <PUBCHEM_MMFF94_ENERGY>
-1.2479

> <PUBCHEM_FEATURE_SELFOVERLAP>
66.028

> <PUBCHEM_SHAPE_FINGERPRINT>
10857977 72 15213306292032655047
11715629 250 18343015614417496224
12932764 1 18334292071771609038
13705890 14 11887657468874438775
13764800 53 18042697284718061552
14115302 16 16702030768355122390
14251711 518 18340761572541244152
14350558 41 9007056846721504608
15279308 10 18341882009254707692
15775835 57 18343586265031008056
16945 1 18271243828798815603
17357990 137 18200590285455584138
17834072 14 12031505441639501270
18175812 5 16588306025578158435
18186145 218 18411139147166075696
20626108 58 10518556486321276061
20645476 183 18060418010322608054
20653085 51 18201729478281043494
21041028 32 17829600674531145482
21524375 3 18260269642097259698
21639500 275 18260816081963942221
22854114 111 18335135380052507032
23557571 272 17200768250191949774
23559900 14 13840537407292494898
23598291 2 18270666602791029070
25 1 18336273379288280714
3286 77 17749391408147275058
474 4 18191579959660389124
633830 44 18342184345061713277
81228 2 16954229229210192930
88987 49 17274807108469790142
9882013 296 15936700344921974053

> <PUBCHEM_SHAPE_MULTIPOLES>
280.3
6.41
2.05
1.43
1.37
0.82
0.33
2.88
-0.17
-0.88
-0.22
0.4
-0.56
-0.8

> <PUBCHEM_SHAPE_SELFOVERLAP>
528.487

> <PUBCHEM_SHAPE_VOLUME>
173.5

> <PUBCHEM_COORDINATE_TYPE>
2
5
10

$$$$
