22820300
  -OEChem-02062310113D

 30 29  0     1  0  0  0  0  0999 V2000
   -4.1210   -0.6454   -0.1071 P   0  0  0  0  0  0  0  0  0  0  0  0
    0.2165    0.2175    1.6812 O   0  0  0  0  0  0  0  0  0  0  0  0
    1.9261    0.3262   -1.5389 O   0  0  0  0  0  0  0  0  0  0  0  0
   -0.2228    2.5151   -0.0213 O   0  0  0  0  0  0  0  0  0  0  0  0
   -2.5765   -0.2781   -0.4156 O   0  0  0  0  0  0  0  0  0  0  0  0
    2.4341   -1.9086    0.1720 O   0  0  0  0  0  0  0  0  0  0  0  0
    4.7031    0.8778    0.3879 O   0  0  0  0  0  0  0  0  0  0  0  0
    4.9041   -1.1575   -0.5950 O   0  0  0  0  0  0  0  0  0  0  0  0
   -4.9467    0.5782   -0.7675 O   0  0  0  0  0  0  0  0  0  0  0  0
   -4.2458   -0.3642    1.4805 O   0  0  0  0  0  0  0  0  0  0  0  0
   -4.5473   -2.0166   -0.5434 O   0  0  0  0  0  0  0  0  0  0  0  0
    0.3326    0.1717    0.2627 C   0  0  2  0  0  0  0  0  0  0  0  0
    1.8110    0.4147   -0.1156 C   0  0  1  0  0  0  0  0  0  0  0  0
   -0.6217    1.1955   -0.3917 C   0  0  1  0  0  0  0  0  0  0  0  0
    2.8125   -0.5794    0.5024 C   0  0  2  0  0  0  0  0  0  0  0  0
   -2.0975    1.0032   -0.0318 C   0  0  0  0  0  0  0  0  0  0  0  0
    4.2393   -0.3500    0.0413 C   0  0  0  0  0  0  0  0  0  0  0  0
    0.0307   -0.8318   -0.0589 H   0  0  0  0  0  0  0  0  0  0  0  0
    2.1103    1.4287    0.1732 H   0  0  0  0  0  0  0  0  0  0  0  0
   -0.5213    1.1123   -1.4806 H   0  0  0  0  0  0  0  0  0  0  0  0
    2.8030   -0.5086    1.5953 H   0  0  0  0  0  0  0  0  0  0  0  0
   -2.6931    1.7757   -0.5313 H   0  0  0  0  0  0  0  0  0  0  0  0
   -2.2394    1.1447    1.0453 H   0  0  0  0  0  0  0  0  0  0  0  0
    0.4385    1.1205    1.9660 H   0  0  0  0  0  0  0  0  0  0  0  0
    1.5382   -0.5184   -1.8234 H   0  0  0  0  0  0  0  0  0  0  0  0
   -0.8023    3.1398   -0.4896 H   0  0  0  0  0  0  0  0  0  0  0  0
    2.4576   -1.9992   -0.7954 H   0  0  0  0  0  0  0  0  0  0  0  0
    5.6211    1.0240    0.0746 H   0  0  0  0  0  0  0  0  0  0  0  0
   -5.9271    0.5457   -0.7639 H   0  0  0  0  0  0  0  0  0  0  0  0
   -5.0790   -0.6014    1.9403 H   0  0  0  0  0  0  0  0  0  0  0  0
  1  5  1  0  0  0  0
  1  9  1  0  0  0  0
  1 10  1  0  0  0  0
  1 11  2  0  0  0  0
  2 12  1  0  0  0  0
  2 24  1  0  0  0  0
  3 13  1  0  0  0  0
  3 25  1  0  0  0  0
  4 14  1  0  0  0  0
  4 26  1  0  0  0  0
  5 16  1  0  0  0  0
  6 15  1  0  0  0  0
  6 27  1  0  0  0  0
  7 17  1  0  0  0  0
  7 28  1  0  0  0  0
  8 17  2  0  0  0  0
  9 29  1  0  0  0  0
 10 30  1  0  0  0  0
 12 13  1  0  0  0  0
 12 14  1  0  0  0  0
 12 18  1  0  0  0  0
 13 15  1  0  0  0  0
 13 19  1  0  0  0  0
 14 16  1  0  0  0  0
 14 20  1  0  0  0  0
 15 17  1  0  0  0  0
 15 21  1  0  0  0  0
 16 22  1  0  0  0  0
 16 23  1  0  0  0  0
M  END
> <PUBCHEM_COMPOUND_CID>
22820300

> <PUBCHEM_CONFORMER_RMSD>
0.8

> <PUBCHEM_CONFORMER_DIVERSEORDER>
1
48
47
27
13
98
53
87
68
70
64
26
60
55
52
10
54
73
99
80
7
6
97
57
63
92
77
32
86
16
50
23
84
78
88
79
75
76
61
22
69
17
9
35
96
72
12
91
62
42
30
81
46
71
43
90
95
24
59
45
40
66
49
21
82
3
94
28
34
56
5
93
36
14
58
65
4
85
89
8
31
33
25
39
11
37
29
41
15
83
18
44
38
74
51
19
20
2
67

> <PUBCHEM_MMFF94_PARTIAL_CHARGES>
24
1 1.51
10 -0.77
11 -0.7
12 0.28
13 0.28
14 0.28
15 0.34
16 0.28
17 0.66
2 -0.68
24 0.4
25 0.4
26 0.4
27 0.4
28 0.5
29 0.5
3 -0.68
30 0.5
4 -0.68
5 -0.55
6 -0.68
7 -0.65
8 -0.57
9 -0.77

> <PUBCHEM_EFFECTIVE_ROTOR_COUNT>
7

> <PUBCHEM_PHARMACOPHORE_FEATURES>
15
1 10 acceptor
1 11 acceptor
1 2 acceptor
1 2 donor
1 3 acceptor
1 3 donor
1 4 acceptor
1 4 donor
1 6 acceptor
1 6 donor
1 7 acceptor
1 8 acceptor
1 9 acceptor
3 7 8 17 anion
4 1 9 10 11 anion

> <PUBCHEM_HEAVY_ATOM_COUNT>
17

> <PUBCHEM_ATOM_DEF_STEREO_COUNT>
4

> <PUBCHEM_ATOM_UDEF_STEREO_COUNT>
0

> <PUBCHEM_BOND_DEF_STEREO_COUNT>
0

> <PUBCHEM_BOND_UDEF_STEREO_COUNT>
0

> <PUBCHEM_ISOTOPIC_ATOM_COUNT>
0

> <PUBCHEM_COMPONENT_COUNT>
1

> <PUBCHEM_CACTVS_TAUTO_COUNT>
1

> <PUBCHEM_CONFORMER_ID>
015C35CC00000001

> <PUBCHEM_MMFF94_ENERGY>
-4.3171

> <PUBCHEM_FEATURE_SELFOVERLAP>
76.242

> <PUBCHEM_SHAPE_FINGERPRINT>
10354089 29 11959734888597579719
11046707 91 18272086119647075287
11806522 49 18333447655705737588
12119455 92 10952052234153025601
12251169 10 14620790526991286013
12596602 18 17561085843156301779
12815109 37 18410007732637250109
12916748 109 8934997096451641175
13288520 33 18412546470662937430
14123255 352 9727363415690326451
14251764 18 18060423521825555225
14252887 29 17918001572233025174
14576447 43 18259701194691239866
15375462 189 17775275058790253246
15880784 105 17988645219903151938
18186145 218 15719391767702996581
187816 3 17458347424694966936
18785283 64 17700111473517005384
200 152 18040157305299086920
20681677 155 18113613457433528817
20871999 31 18187636965060585253
21524375 3 10519982677751802549
22485316 2 18410852157678119359
231179 274 11743843547042563756
23402539 116 17385722478372630260
23402655 69 16588295034951747925
23557571 272 18271244898398984668
265663 24 12468354665223223920
2871803 45 18334853875243263570
2916195 48 11097862912214203870
351380 180 8214141858760465403
6430166 295 10087638204229344898
83771 10 18342454850528432673

> <PUBCHEM_SHAPE_MULTIPOLES>
295.01
10.61
1.65
1.04
2.24
0.13
-0.18
-4.08
0.79
0.4
0.15
0.27
-0.01
0.08

> <PUBCHEM_SHAPE_SELFOVERLAP>
559.62

> <PUBCHEM_SHAPE_VOLUME>
181.9

> <PUBCHEM_COORDINATE_TYPE>
2
5
10

$$$$
