23615570
  -OEChem-02062310123D

 27 26  0     1  0  0  0  0  0999 V2000
    3.2822   -0.5204   -0.0279 P   0  0  0  0  0  0  0  0  0  0  0  0
   -1.5181    0.9374    1.5987 O   0  0  0  0  0  0  0  0  0  0  0  0
    0.1318    2.4308   -0.4406 O   0  0  0  0  0  0  0  0  0  0  0  0
   -2.7267   -0.3042   -1.5976 O   0  0  0  0  0  0  0  0  0  0  0  0
    2.0135    0.3394   -0.5479 O   0  0  0  0  0  0  0  0  0  0  0  0
   -4.3862   -1.7500    0.1301 O   0  0  0  0  0  0  0  0  0  0  0  0
    2.7350   -2.0420   -0.0129 O   0  0  0  0  0  0  0  0  0  0  0  0
    3.3581   -0.1370    1.5413 O   0  0  0  0  0  0  0  0  0  0  0  0
    4.5533   -0.3031   -0.7957 O   0  0  0  0  0  0  0  0  0  0  0  0
   -1.6843    0.9510    0.1756 C   0  0  1  0  0  0  0  0  0  0  0  0
   -0.3050    1.0746   -0.4996 C   0  0  2  0  0  0  0  0  0  0  0  0
   -2.4513   -0.3338   -0.1909 C   0  0  1  0  0  0  0  0  0  0  0  0
    0.7742    0.1900    0.1259 C   0  0  0  0  0  0  0  0  0  0  0  0
   -3.7765   -0.5326    0.5415 C   0  0  0  0  0  0  0  0  0  0  0  0
   -2.2943    1.8263   -0.0799 H   0  0  0  0  0  0  0  0  0  0  0  0
   -0.3919    0.8453   -1.5678 H   0  0  0  0  0  0  0  0  0  0  0  0
   -1.8238   -1.2137   -0.0068 H   0  0  0  0  0  0  0  0  0  0  0  0
    0.9306    0.4747    1.1712 H   0  0  0  0  0  0  0  0  0  0  0  0
    0.4718   -0.8603    0.0886 H   0  0  0  0  0  0  0  0  0  0  0  0
   -4.4705    0.2806    0.3039 H   0  0  0  0  0  0  0  0  0  0  0  0
   -3.6295   -0.5732    1.6248 H   0  0  0  0  0  0  0  0  0  0  0  0
   -1.0745    1.7671    1.8449 H   0  0  0  0  0  0  0  0  0  0  0  0
    1.0012    2.4781   -0.8741 H   0  0  0  0  0  0  0  0  0  0  0  0
   -3.1906   -1.1294   -1.8205 H   0  0  0  0  0  0  0  0  0  0  0  0
   -5.2245   -1.8280    0.6167 H   0  0  0  0  0  0  0  0  0  0  0  0
    3.3566   -2.7677    0.2088 H   0  0  0  0  0  0  0  0  0  0  0  0
    4.1134   -0.4652    2.0740 H   0  0  0  0  0  0  0  0  0  0  0  0
  1  5  1  0  0  0  0
  1  7  1  0  0  0  0
  1  8  1  0  0  0  0
  1  9  2  0  0  0  0
  2 10  1  0  0  0  0
  2 22  1  0  0  0  0
  3 11  1  0  0  0  0
  3 23  1  0  0  0  0
  4 12  1  0  0  0  0
  4 24  1  0  0  0  0
  5 13  1  0  0  0  0
  6 14  1  0  0  0  0
  6 25  1  0  0  0  0
  7 26  1  0  0  0  0
  8 27  1  0  0  0  0
 10 11  1  0  0  0  0
 10 12  1  0  0  0  0
 10 15  1  0  0  0  0
 11 13  1  0  0  0  0
 11 16  1  0  0  0  0
 12 14  1  0  0  0  0
 12 17  1  0  0  0  0
 13 18  1  0  0  0  0
 13 19  1  0  0  0  0
 14 20  1  0  0  0  0
 14 21  1  0  0  0  0
M  END
> <PUBCHEM_COMPOUND_CID>
23615570

> <PUBCHEM_CONFORMER_RMSD>
0.8

> <PUBCHEM_CONFORMER_DIVERSEORDER>
1
87
41
51
39
49
72
71
6
22
17
81
59
63
86
66
7
9
46
55
45
58
97
82
53
20
12
61
38
15
29
16
64
26
94
91
80
78
2
76
92
52
11
10
73
68
28
89
57
18
83
69
43
74
23
33
5
27
75
35
48
60
85
31
14
44
30
62
13
93
95
37
56
24
36
34
79
42
88
67
8
50
70
96
21
40
47
4
54
25
90
65
3
77
19
32
84

> <PUBCHEM_MMFF94_PARTIAL_CHARGES>
20
1 1.51
10 0.28
11 0.28
12 0.28
13 0.28
14 0.28
2 -0.68
22 0.4
23 0.4
24 0.4
25 0.4
26 0.5
27 0.5
3 -0.68
4 -0.68
5 -0.55
6 -0.68
7 -0.77
8 -0.77
9 -0.7

> <PUBCHEM_EFFECTIVE_ROTOR_COUNT>
6

> <PUBCHEM_PHARMACOPHORE_FEATURES>
12
1 2 acceptor
1 2 donor
1 3 acceptor
1 3 donor
1 4 acceptor
1 4 donor
1 6 acceptor
1 6 donor
1 7 acceptor
1 8 acceptor
1 9 acceptor
4 1 7 8 9 anion

> <PUBCHEM_HEAVY_ATOM_COUNT>
14

> <PUBCHEM_ATOM_DEF_STEREO_COUNT>
3

> <PUBCHEM_ATOM_UDEF_STEREO_COUNT>
0

> <PUBCHEM_BOND_DEF_STEREO_COUNT>
0

> <PUBCHEM_BOND_UDEF_STEREO_COUNT>
0

> <PUBCHEM_ISOTOPIC_ATOM_COUNT>
0

> <PUBCHEM_COMPONENT_COUNT>
1

> <PUBCHEM_CACTVS_TAUTO_COUNT>
1

> <PUBCHEM_CONFORMER_ID>
0168585200000001

> <PUBCHEM_MMFF94_ENERGY>
-5.1298

> <PUBCHEM_FEATURE_SELFOVERLAP>
60.947

> <PUBCHEM_SHAPE_FINGERPRINT>
114248 4 14996288045427162619
12119455 92 12607407650494249041
12251169 10 15626226840272133619
12932764 1 17916858020337597916
14123255 52 9367350318843326215
14252887 29 18060148638848372470
15375462 189 17988921201642843615
200 152 17603868892764581184
20112054 13 11455888057361402362
20281407 28 18411698755603357192
20281475 54 18335985276881600800
20361792 2 18408601470018624237
20645477 70 18116428340191705519
20653085 51 11458713763495252437
20671657 53 18186515522939502925
20871999 31 17894909620594723213
22485316 2 18408041792851062917
231179 274 9150904870588383179
23402539 116 18113899308913140844
23532345 42 18410848893418611024
4028521 119 11458420245620290863

> <PUBCHEM_SHAPE_MULTIPOLES>
245.01
7.99
1.66
1.13
1.7
0.2
0.18
-4.52
0.01
-0.32
-0.1
-0.06
0.1
-0.12

> <PUBCHEM_SHAPE_SELFOVERLAP>
450.635

> <PUBCHEM_SHAPE_VOLUME>
155.4

> <PUBCHEM_COORDINATE_TYPE>
2
5
10

$$$$
