25322874
  -OEChem-02062310113D

 30 29  0     1  0  0  0  0  0999 V2000
    3.1059   -0.9161   -0.0143 P   0  0  0  0  0  0  0  0  0  0  0  0
   -0.6121    0.3727   -1.4321 O   0  0  0  0  0  0  0  0  0  0  0  0
   -1.7455    1.5109    1.8387 O   0  0  0  0  0  0  0  0  0  0  0  0
    0.9573    2.7390   -1.1458 O   0  0  0  0  0  0  0  0  0  0  0  0
    1.9489    0.1378   -0.4220 O   0  0  0  0  0  0  0  0  0  0  0  0
   -3.5728    0.5829   -0.3986 O   0  0  0  0  0  0  0  0  0  0  0  0
   -1.8762   -2.3883    0.7203 O   0  0  0  0  0  0  0  0  0  0  0  0
   -2.9238   -1.8946   -1.2312 O   0  0  0  0  0  0  0  0  0  0  0  0
    2.5823   -1.5410    1.3824 O   0  0  0  0  0  0  0  0  0  0  0  0
    4.3227    0.0463    0.4419 O   0  0  0  0  0  0  0  0  0  0  0  0
    3.4543   -1.9188   -1.0752 O   0  0  0  0  0  0  0  0  0  0  0  0
   -0.8470    1.3087   -0.3849 C   0  0  1  0  0  0  0  0  0  0  0  0
   -1.4734    0.5549    0.8097 C   0  0  2  0  0  0  0  0  0  0  0  0
    0.4616    2.0373   -0.0057 C   0  0  1  0  0  0  0  0  0  0  0  0
   -2.7853   -0.1896    0.4970 C   0  0  2  0  0  0  0  0  0  0  0  0
    1.5635    1.1191    0.5303 C   0  0  0  0  0  0  0  0  0  0  0  0
   -2.5604   -1.5612   -0.1106 C   0  0  0  0  0  0  0  0  0  0  0  0
   -1.5419    2.0655   -0.7689 H   0  0  0  0  0  0  0  0  0  0  0  0
   -0.7555   -0.1626    1.2198 H   0  0  0  0  0  0  0  0  0  0  0  0
    0.2380    2.7945    0.7549 H   0  0  0  0  0  0  0  0  0  0  0  0
   -3.3868   -0.3282    1.4022 H   0  0  0  0  0  0  0  0  0  0  0  0
    1.2541    0.6349    1.4602 H   0  0  0  0  0  0  0  0  0  0  0  0
    2.4450    1.7299    0.7545 H   0  0  0  0  0  0  0  0  0  0  0  0
   -0.1871    0.8537   -2.1626 H   0  0  0  0  0  0  0  0  0  0  0  0
   -2.0463    1.0210    2.6230 H   0  0  0  0  0  0  0  0  0  0  0  0
    1.7510    3.2279   -0.8691 H   0  0  0  0  0  0  0  0  0  0  0  0
   -3.1360    0.5867   -1.2671 H   0  0  0  0  0  0  0  0  0  0  0  0
   -1.7221   -3.2683    0.3152 H   0  0  0  0  0  0  0  0  0  0  0  0
    3.0954   -2.2649    1.8004 H   0  0  0  0  0  0  0  0  0  0  0  0
    5.1915   -0.3559    0.6550 H   0  0  0  0  0  0  0  0  0  0  0  0
  1  5  1  0  0  0  0
  1  9  1  0  0  0  0
  1 10  1  0  0  0  0
  1 11  2  0  0  0  0
  2 12  1  0  0  0  0
  2 24  1  0  0  0  0
  3 13  1  0  0  0  0
  3 25  1  0  0  0  0
  4 14  1  0  0  0  0
  4 26  1  0  0  0  0
  5 16  1  0  0  0  0
  6 15  1  0  0  0  0
  6 27  1  0  0  0  0
  7 17  1  0  0  0  0
  7 28  1  0  0  0  0
  8 17  2  0  0  0  0
  9 29  1  0  0  0  0
 10 30  1  0  0  0  0
 12 13  1  0  0  0  0
 12 14  1  0  0  0  0
 12 18  1  0  0  0  0
 13 15  1  0  0  0  0
 13 19  1  0  0  0  0
 14 16  1  0  0  0  0
 14 20  1  0  0  0  0
 15 17  1  0  0  0  0
 15 21  1  0  0  0  0
 16 22  1  0  0  0  0
 16 23  1  0  0  0  0
M  END
> <PUBCHEM_COMPOUND_CID>
25322874

> <PUBCHEM_CONFORMER_RMSD>
0.8

> <PUBCHEM_CONFORMER_DIVERSEORDER>
1
105
80
114
37
64
25
94
57
60
8
51
77
102
84
118
67
112
120
107
40
91
115
99
24
78
95
79
109
17
27
5
74
18
96
47
69
65
63
19
66
20
35
22
3
113
34
30
10
83
26
62
55
43
38
48
23
29
12
14
89
32
108
76
9
54
31
61
42
16
104
119
59
13
116
86
111
45
28
75
58
103
117
36
97
82
101
70
85
87
92
81
52
21
53
68
41
7
71
44
106
93
49
73
98
100
88
2
46
11
6
56
33
72
110
90
4
50
39
15

> <PUBCHEM_MMFF94_PARTIAL_CHARGES>
24
1 1.51
10 -0.77
11 -0.7
12 0.28
13 0.28
14 0.28
15 0.34
16 0.28
17 0.66
2 -0.68
24 0.4
25 0.4
26 0.4
27 0.4
28 0.5
29 0.5
3 -0.68
30 0.5
4 -0.68
5 -0.55
6 -0.68
7 -0.65
8 -0.57
9 -0.77

> <PUBCHEM_EFFECTIVE_ROTOR_COUNT>
7

> <PUBCHEM_PHARMACOPHORE_FEATURES>
15
1 10 acceptor
1 11 acceptor
1 2 acceptor
1 2 donor
1 3 acceptor
1 3 donor
1 4 acceptor
1 4 donor
1 6 acceptor
1 6 donor
1 7 acceptor
1 8 acceptor
1 9 acceptor
3 7 8 17 anion
4 1 9 10 11 anion

> <PUBCHEM_HEAVY_ATOM_COUNT>
17

> <PUBCHEM_ATOM_DEF_STEREO_COUNT>
4

> <PUBCHEM_ATOM_UDEF_STEREO_COUNT>
0

> <PUBCHEM_BOND_DEF_STEREO_COUNT>
0

> <PUBCHEM_BOND_UDEF_STEREO_COUNT>
0

> <PUBCHEM_ISOTOPIC_ATOM_COUNT>
0

> <PUBCHEM_COMPONENT_COUNT>
1

> <PUBCHEM_CACTVS_TAUTO_COUNT>
1

> <PUBCHEM_CONFORMER_ID>
0182657A00000001

> <PUBCHEM_MMFF94_ENERGY>
-2.314

> <PUBCHEM_FEATURE_SELFOVERLAP>
76.24

> <PUBCHEM_SHAPE_FINGERPRINT>
10366900 7 16773791481036326378
11769659 78 18270113638393594213
12553582 1 18261114036988864474
12596599 1 18270972258375554842
14251705 54 18050291662897229019
18511873 20 18412265030346833745
20361792 2 18186805764023560028
20442098 301 18202281403174923630
20645477 70 18119804961691014351
20671657 53 18187633752018755359
21069387 34 18200863063498171261
232386 152 18339934778404013030
23402539 116 18186515497897335706
23559900 14 18129932489910860688
23598291 2 18264507198713145981
449060 23 18411982451305006722
7364860 26 18196091272880179208

> <PUBCHEM_SHAPE_MULTIPOLES>
295.01
6.25
2.6
1.27
3.18
0.01
-0.1
3.45
-0.01
-0.07
0.33
-0.17
-0.06
-0.41

> <PUBCHEM_SHAPE_SELFOVERLAP>
561.141

> <PUBCHEM_SHAPE_VOLUME>
181.3

> <PUBCHEM_COORDINATE_TYPE>
2
5
10

$$$$
