4369556
  -OEChem-02062310113D

 35 35  0     1  0  0  0  0  0999 V2000
    4.4799   -0.3659    0.0331 P   0  0  0  0  0  0  0  0  0  0  0  0
   -0.8409   -0.4429    0.1714 O   0  0  0  0  0  0  0  0  0  0  0  0
   -1.5941    2.0528    1.4491 O   0  0  0  0  0  0  0  0  0  0  0  0
   -3.9243    2.3341   -0.0284 O   0  0  0  0  0  0  0  0  0  0  0  0
   -2.0175   -1.2885   -1.7037 O   0  0  0  0  0  0  0  0  0  0  0  0
    1.2636    2.4874   -0.2583 O   0  0  0  0  0  0  0  0  0  0  0  0
    3.1918    0.5547    0.3566 O   0  0  0  0  0  0  0  0  0  0  0  0
   -3.4742   -2.8023   -0.0309 O   0  0  0  0  0  0  0  0  0  0  0  0
   -1.5669   -2.7239    1.2149 O   0  0  0  0  0  0  0  0  0  0  0  0
    4.5093   -0.4337   -1.5824 O   0  0  0  0  0  0  0  0  0  0  0  0
    3.9770   -1.8428    0.4583 O   0  0  0  0  0  0  0  0  0  0  0  0
    5.7588    0.0790    0.6801 O   0  0  0  0  0  0  0  0  0  0  0  0
   -0.4845    0.8471   -0.3443 C   0  0  1  0  0  0  0  0  0  0  0  0
   -1.5520    1.8835    0.0306 C   0  0  1  0  0  0  0  0  0  0  0  0
   -2.9216    1.4319   -0.4800 C   0  0  1  0  0  0  0  0  0  0  0  0
   -3.2406    0.0103   -0.0160 C   0  0  0  0  0  0  0  0  0  0  0  0
   -2.0794   -0.9378   -0.3283 C   0  0  2  0  0  0  0  0  0  0  0  0
    0.8872    1.1980    0.2202 C   0  0  1  0  0  0  0  0  0  0  0  0
    1.9423    0.1942   -0.2227 C   0  0  0  0  0  0  0  0  0  0  0  0
   -2.3139   -2.2350    0.3806 C   0  0  0  0  0  0  0  0  0  0  0  0
   -0.4189    0.7888   -1.4394 H   0  0  0  0  0  0  0  0  0  0  0  0
   -1.3133    2.8662   -0.3905 H   0  0  0  0  0  0  0  0  0  0  0  0
   -2.9271    1.4548   -1.5768 H   0  0  0  0  0  0  0  0  0  0  0  0
   -3.4518    0.0247    1.0617 H   0  0  0  0  0  0  0  0  0  0  0  0
   -4.1684   -0.3171   -0.5023 H   0  0  0  0  0  0  0  0  0  0  0  0
    0.8705    1.2386    1.3158 H   0  0  0  0  0  0  0  0  0  0  0  0
    1.6798   -0.8184    0.0970 H   0  0  0  0  0  0  0  0  0  0  0  0
    2.0479    0.2118   -1.3125 H   0  0  0  0  0  0  0  0  0  0  0  0
   -1.6605    1.1729    1.8570 H   0  0  0  0  0  0  0  0  0  0  0  0
   -3.6863    3.2212   -0.3475 H   0  0  0  0  0  0  0  0  0  0  0  0
   -1.3997   -2.0333   -1.7990 H   0  0  0  0  0  0  0  0  0  0  0  0
    2.1477    2.6836    0.0960 H   0  0  0  0  0  0  0  0  0  0  0  0
   -3.6460   -3.6551    0.4224 H   0  0  0  0  0  0  0  0  0  0  0  0
    5.2526   -0.8966   -2.0245 H   0  0  0  0  0  0  0  0  0  0  0  0
    4.6181   -2.5852    0.4428 H   0  0  0  0  0  0  0  0  0  0  0  0
  1  7  1  0  0  0  0
  1 10  1  0  0  0  0
  1 11  1  0  0  0  0
  1 12  2  0  0  0  0
  2 13  1  0  0  0  0
  2 17  1  0  0  0  0
  3 14  1  0  0  0  0
  3 29  1  0  0  0  0
  4 15  1  0  0  0  0
  4 30  1  0  0  0  0
  5 17  1  0  0  0  0
  5 31  1  0  0  0  0
  6 18  1  0  0  0  0
  6 32  1  0  0  0  0
  7 19  1  0  0  0  0
  8 20  1  0  0  0  0
  8 33  1  0  0  0  0
  9 20  2  0  0  0  0
 10 34  1  0  0  0  0
 11 35  1  0  0  0  0
 13 14  1  0  0  0  0
 13 18  1  0  0  0  0
 13 21  1  0  0  0  0
 14 15  1  0  0  0  0
 14 22  1  0  0  0  0
 15 16  1  0  0  0  0
 15 23  1  0  0  0  0
 16 17  1  0  0  0  0
 16 24  1  0  0  0  0
 16 25  1  0  0  0  0
 17 20  1  0  0  0  0
 18 19  1  0  0  0  0
 18 26  1  0  0  0  0
 19 27  1  0  0  0  0
 19 28  1  0  0  0  0
M  END
> <PUBCHEM_COMPOUND_CID>
4369556

> <PUBCHEM_CONFORMER_RMSD>
0.8

> <PUBCHEM_CONFORMER_DIVERSEORDER>
1
22
33
34
21
11
10
29
26
16
37
13
30
19
24
6
35
23
36
2
14
32
9
28
31
27
38
17
8
5
20
12
18
7
4
15
25
3

> <PUBCHEM_MMFF94_PARTIAL_CHARGES>
26
1 1.51
10 -0.77
11 -0.77
12 -0.7
13 0.28
14 0.28
15 0.28
17 0.62
18 0.28
19 0.28
2 -0.56
20 0.66
29 0.4
3 -0.68
30 0.4
31 0.4
32 0.4
33 0.5
34 0.5
35 0.5
4 -0.68
5 -0.68
6 -0.68
7 -0.55
8 -0.65
9 -0.57

> <PUBCHEM_EFFECTIVE_ROTOR_COUNT>
6.2

> <PUBCHEM_PHARMACOPHORE_FEATURES>
17
1 10 acceptor
1 11 acceptor
1 12 acceptor
1 2 acceptor
1 3 acceptor
1 3 donor
1 4 acceptor
1 4 donor
1 5 acceptor
1 5 donor
1 6 acceptor
1 6 donor
1 8 acceptor
1 9 acceptor
3 8 9 20 anion
4 1 10 11 12 anion
6 2 13 14 15 16 17 rings

> <PUBCHEM_HEAVY_ATOM_COUNT>
20

> <PUBCHEM_ATOM_DEF_STEREO_COUNT>
5

> <PUBCHEM_ATOM_UDEF_STEREO_COUNT>
0

> <PUBCHEM_BOND_DEF_STEREO_COUNT>
0

> <PUBCHEM_BOND_UDEF_STEREO_COUNT>
0

> <PUBCHEM_ISOTOPIC_ATOM_COUNT>
0

> <PUBCHEM_COMPONENT_COUNT>
1

> <PUBCHEM_CACTVS_TAUTO_COUNT>
1

> <PUBCHEM_CONFORMER_ID>
0042AC9400000001

> <PUBCHEM_MMFF94_ENERGY>
8.1371

> <PUBCHEM_FEATURE_SELFOVERLAP>
86.441

> <PUBCHEM_SHAPE_FINGERPRINT>
10366900 7 17346307168703216632
10616163 171 18411139138908937750
11315181 36 17846495907927192208
11552529 35 14835263537158784414
12555020 224 18264761060954519519
12616971 3 17168145620659197876
13140716 1 18342742969893689353
14790565 3 17978230452586755369
14866123 147 18408887360934248715
15042514 8 18408890650815269905
15375358 24 17917427584451036604
15415430 112 18336554850006928052
15422964 175 17615406295961037491
16945 1 18408888468950966381
17804303 29 18411703192273165781
17859628 97 18116430332518707963
18186145 218 13190346764411653548
20281475 54 18259982695627262220
20645476 183 18186802435708696709
20681677 155 18409163273410936920
20871999 31 18334580152761351428
23402539 116 18059564751172405045
23557571 272 18343584062282172600
23558518 356 18042973257657341776
23559900 14 18342171125732553536
23566358 27 17753347635842043717
23598288 3 18272096049310913661
23728640 28 18343579638165593087
3759504 43 18041282067635792445
4214541 1 18410290298778461392
4921388 177 16733274524786956418
5104073 3 18341885295701158128
559249 180 18264201431475171210
58051976 100 18409731759656265628
633830 44 16298677079652903808
8809292 202 18409730689882153097
9709674 26 18339921640262727488

> <PUBCHEM_SHAPE_MULTIPOLES>
350.88
9.03
2.92
1.02
13.74
0.83
0.16
1.79
0.17
-3.27
-0.57
0.1
0.18
-0.01

> <PUBCHEM_SHAPE_SELFOVERLAP>
700.305

> <PUBCHEM_SHAPE_VOLUME>
207.7

> <PUBCHEM_COORDINATE_TYPE>
2
5
10

$$$$
