439284
  -OEChem-02062310133D

 29 29  0     1  0  0  0  0  0999 V2000
   -3.7167   -0.1894   -0.0386 P   0  0  0  0  0  0  0  0  0  0  0  0
    0.4299   -1.0147   -0.4670 O   0  0  0  0  0  0  0  0  0  0  0  0
    1.0404    2.4087    0.7561 O   0  0  0  0  0  0  0  0  0  0  0  0
    3.5549    1.6840   -0.4289 O   0  0  0  0  0  0  0  0  0  0  0  0
    4.0926   -1.1502   -0.1982 O   0  0  0  0  0  0  0  0  0  0  0  0
    1.8081   -2.0532    1.1585 O   0  0  0  0  0  0  0  0  0  0  0  0
   -2.1363   -0.4083    0.2400 O   0  0  0  0  0  0  0  0  0  0  0  0
   -3.7756    0.2393   -1.5968 O   0  0  0  0  0  0  0  0  0  0  0  0
   -4.0340    1.1922    0.7394 O   0  0  0  0  0  0  0  0  0  0  0  0
   -4.5931   -1.3468    0.3419 O   0  0  0  0  0  0  0  0  0  0  0  0
    1.2191    1.2650   -0.0760 C   0  0  1  0  0  0  0  0  0  0  0  0
    2.6410    0.7416    0.1369 C   0  0  1  0  0  0  0  0  0  0  0  0
    0.1761    0.1913    0.2627 C   0  0  1  0  0  0  0  0  0  0  0  0
    2.8252   -0.6086   -0.5528 C   0  0  2  0  0  0  0  0  0  0  0  0
    1.7086   -1.5874   -0.1860 C   0  0  2  0  0  0  0  0  0  0  0  0
   -1.2403    0.6365   -0.0912 C   0  0  0  0  0  0  0  0  0  0  0  0
    1.0987    1.5890   -1.1179 H   0  0  0  0  0  0  0  0  0  0  0  0
    2.8865    0.6777    1.2038 H   0  0  0  0  0  0  0  0  0  0  0  0
    0.1929   -0.0377    1.3364 H   0  0  0  0  0  0  0  0  0  0  0  0
    2.8311   -0.4515   -1.6383 H   0  0  0  0  0  0  0  0  0  0  0  0
    1.8033   -2.4803   -0.8127 H   0  0  0  0  0  0  0  0  0  0  0  0
   -1.3148    0.8335   -1.1658 H   0  0  0  0  0  0  0  0  0  0  0  0
   -1.5092    1.5431    0.4592 H   0  0  0  0  0  0  0  0  0  0  0  0
    1.6110    3.1167    0.4131 H   0  0  0  0  0  0  0  0  0  0  0  0
    3.5134    2.4939    0.1068 H   0  0  0  0  0  0  0  0  0  0  0  0
    4.0917   -1.3145    0.7600 H   0  0  0  0  0  0  0  0  0  0  0  0
    2.1285   -1.3269    1.7172 H   0  0  0  0  0  0  0  0  0  0  0  0
   -4.6507    0.3609   -2.0228 H   0  0  0  0  0  0  0  0  0  0  0  0
   -4.9632    1.5008    0.7990 H   0  0  0  0  0  0  0  0  0  0  0  0
  1  7  1  0  0  0  0
  1  8  1  0  0  0  0
  1  9  1  0  0  0  0
  1 10  2  0  0  0  0
  2 13  1  0  0  0  0
  2 15  1  0  0  0  0
  3 11  1  0  0  0  0
  3 24  1  0  0  0  0
  4 12  1  0  0  0  0
  4 25  1  0  0  0  0
  5 14  1  0  0  0  0
  5 26  1  0  0  0  0
  6 15  1  0  0  0  0
  6 27  1  0  0  0  0
  7 16  1  0  0  0  0
  8 28  1  0  0  0  0
  9 29  1  0  0  0  0
 11 12  1  0  0  0  0
 11 13  1  0  0  0  0
 11 17  1  0  0  0  0
 12 14  1  0  0  0  0
 12 18  1  0  0  0  0
 13 16  1  0  0  0  0
 13 19  1  0  0  0  0
 14 15  1  0  0  0  0
 14 20  1  0  0  0  0
 15 21  1  0  0  0  0
 16 22  1  0  0  0  0
 16 23  1  0  0  0  0
M  END
> <PUBCHEM_COMPOUND_CID>
439284

> <PUBCHEM_CONFORMER_RMSD>
0.6

> <PUBCHEM_CONFORMER_DIVERSEORDER>
1
24
16
26
20
15
7
22
8
23
6
17
14
28
27
5
9
21
10
18
19
4
11
3
25
13
2
12

> <PUBCHEM_MMFF94_PARTIAL_CHARGES>
22
1 1.51
10 -0.7
11 0.28
12 0.28
13 0.28
14 0.28
15 0.56
16 0.28
2 -0.56
24 0.4
25 0.4
26 0.4
27 0.4
28 0.5
29 0.5
3 -0.68
4 -0.68
5 -0.68
6 -0.68
7 -0.55
8 -0.77
9 -0.77

> <PUBCHEM_EFFECTIVE_ROTOR_COUNT>
4.2

> <PUBCHEM_PHARMACOPHORE_FEATURES>
14
1 10 acceptor
1 2 acceptor
1 3 acceptor
1 3 donor
1 4 acceptor
1 4 donor
1 5 acceptor
1 5 donor
1 6 acceptor
1 6 donor
1 8 acceptor
1 9 acceptor
4 1 8 9 10 anion
6 2 11 12 13 14 15 rings

> <PUBCHEM_HEAVY_ATOM_COUNT>
16

> <PUBCHEM_ATOM_DEF_STEREO_COUNT>
5

> <PUBCHEM_ATOM_UDEF_STEREO_COUNT>
0

> <PUBCHEM_BOND_DEF_STEREO_COUNT>
0

> <PUBCHEM_BOND_UDEF_STEREO_COUNT>
0

> <PUBCHEM_ISOTOPIC_ATOM_COUNT>
0

> <PUBCHEM_COMPONENT_COUNT>
1

> <PUBCHEM_CACTVS_TAUTO_COUNT>
1

> <PUBCHEM_CONFORMER_ID>
0006B3F400000001

> <PUBCHEM_MMFF94_ENERGY>
1.75

> <PUBCHEM_FEATURE_SELFOVERLAP>
71.141

> <PUBCHEM_SHAPE_FINGERPRINT>
10980938 120 18413387635443866188
11471102 20 18411416224017264516
11615757 297 18272938236752793243
12032990 46 18342182124542515886
12654215 9 18335975402857412388
12932764 1 17822289055307963155
13296908 3 18408323285350657527
14144814 61 18343865502756655089
14251717 144 18412260648905126958
14252887 29 17917436393350060030
15219456 202 18259699008484022341
15375462 189 18262242101358816403
15442244 35 18125164831520210961
15501101 241 18333733511259083005
15757776 16 18336264548719631554
16945 1 18187083906427122980
17834074 16 18335143145786109219
18186145 218 18260267421688565423
200 152 18202283584859807683
20279233 1 17675922106036171995
20281475 54 18335700499254556531
20645477 56 17531241704960134925
20645477 70 18411983550468669975
20871998 22 18058176012061856070
221490 88 18266185104690895083
23402539 116 18060134289483877822
23402655 69 18343019982531033845
23557571 272 16877940512791349759
23596394 208 18114728392014512847
2748010 2 17621321664186796064
5104073 3 18412830187654788377
53428517 54 18410292497416491123
581208 293 18410289233336356648
81539 233 18187643647945080764

> <PUBCHEM_SHAPE_MULTIPOLES>
280.3
8.03
1.95
0.89
7.18
0.24
0.11
-0.92
0.63
-1.34
-0.43
0.39
-0.04
-0.1

> <PUBCHEM_SHAPE_SELFOVERLAP>
546.201

> <PUBCHEM_SHAPE_VOLUME>
169.4

> <PUBCHEM_COORDINATE_TYPE>
2
5
10

$$$$
