439399
  -OEChem-02062310153D

 25 24  0     1  0  0  0  0  0999 V2000
   -3.6081   -0.0362   -0.0480 P   0  0  0  0  0  0  0  0  0  0  0  0
   -2.0867   -0.5104   -0.3142 O   0  0  0  0  0  0  0  0  0  0  0  0
    0.3344   -1.6076    0.3981 O   0  0  0  0  0  0  0  0  0  0  0  0
    1.4656    1.7933   -0.3601 O   0  0  0  0  0  0  0  0  0  0  0  0
    2.9103   -1.2402   -0.5873 O   0  0  0  0  0  0  0  0  0  0  0  0
    5.2446   -0.1091    0.0495 O   0  0  0  0  0  0  0  0  0  0  0  0
   -3.6586    1.4595   -0.6609 O   0  0  0  0  0  0  0  0  0  0  0  0
   -3.6271    0.2155    1.5492 O   0  0  0  0  0  0  0  0  0  0  0  0
   -4.6650   -0.9733   -0.5547 O   0  0  0  0  0  0  0  0  0  0  0  0
    0.3062   -0.3187   -0.2209 C   0  0  2  0  0  0  0  0  0  0  0  0
    1.4945    0.5185    0.2652 C   0  0  1  0  0  0  0  0  0  0  0  0
   -1.0294    0.3293    0.1392 C   0  0  0  0  0  0  0  0  0  0  0  0
    2.8379   -0.1448   -0.0293 C   0  0  0  0  0  0  0  0  0  0  0  0
    4.0814    0.6244    0.3742 C   0  0  0  0  0  0  0  0  0  0  0  0
    0.3512   -0.4808   -1.3041 H   0  0  0  0  0  0  0  0  0  0  0  0
    1.4414    0.6565    1.3514 H   0  0  0  0  0  0  0  0  0  0  0  0
   -1.1153    0.4416    1.2250 H   0  0  0  0  0  0  0  0  0  0  0  0
   -1.1216    1.3125   -0.3316 H   0  0  0  0  0  0  0  0  0  0  0  0
    4.1138    1.5724   -0.1683 H   0  0  0  0  0  0  0  0  0  0  0  0
    4.0654    0.8139    1.4509 H   0  0  0  0  0  0  0  0  0  0  0  0
    0.3087   -1.4770    1.3615 H   0  0  0  0  0  0  0  0  0  0  0  0
    1.4565    1.6545   -1.3227 H   0  0  0  0  0  0  0  0  0  0  0  0
    5.2474   -0.9111    0.5994 H   0  0  0  0  0  0  0  0  0  0  0  0
   -4.5139    1.9398   -0.6702 H   0  0  0  0  0  0  0  0  0  0  0  0
   -4.4791    0.4286    1.9860 H   0  0  0  0  0  0  0  0  0  0  0  0
  1  2  1  0  0  0  0
  1  7  1  0  0  0  0
  1  8  1  0  0  0  0
  1  9  2  0  0  0  0
  2 12  1  0  0  0  0
  3 10  1  0  0  0  0
  3 21  1  0  0  0  0
  4 11  1  0  0  0  0
  4 22  1  0  0  0  0
  5 13  2  0  0  0  0
  6 14  1  0  0  0  0
  6 23  1  0  0  0  0
  7 24  1  0  0  0  0
  8 25  1  0  0  0  0
 10 11  1  0  0  0  0
 10 12  1  0  0  0  0
 10 15  1  0  0  0  0
 11 13  1  0  0  0  0
 11 16  1  0  0  0  0
 12 17  1  0  0  0  0
 12 18  1  0  0  0  0
 13 14  1  0  0  0  0
 14 19  1  0  0  0  0
 14 20  1  0  0  0  0
M  END
> <PUBCHEM_COMPOUND_CID>
439399

> <PUBCHEM_CONFORMER_RMSD>
0.6

> <PUBCHEM_CONFORMER_DIVERSEORDER>
1
104
142
39
49
55
158
177
81
122
32
143
16
82
83
173
178
103
132
133
176
174
2
9
131
42
108
43
172
14
136
76
37
146
155
26
125
20
51
169
13
34
156
19
114
170
66
5
159
95
109
148
96
4
68
91
35
120
10
6
70
94
97
106
75
162
100
17
57
56
163
77
30
63
101
152
129
126
54
46
3
69
180
179
38
40
130
79
53
139
22
102
99
52
84
171
157
121
115
31
150
118
107
7
23
144
29
65
145
111
59
181
98
62
110
127
86
167
160
137
80
58
48
50
93
15
8
124
117
123
33
88
11
147
164
112
182
135
113
153
12
140
138
71
78
89
36
151
154
24
175
90
105
47
92
21
41
85
128
64
168
134
74
166
28
61
25
141
165
45
27
87
119
161
18
149
73
60
72
116
67
44

> <PUBCHEM_MMFF94_PARTIAL_CHARGES>
19
1 1.51
10 0.28
11 0.34
12 0.28
13 0.45
14 0.34
2 -0.55
21 0.4
22 0.4
23 0.4
24 0.5
25 0.5
3 -0.68
4 -0.68
5 -0.57
6 -0.68
7 -0.77
8 -0.77
9 -0.7

> <PUBCHEM_EFFECTIVE_ROTOR_COUNT>
6

> <PUBCHEM_PHARMACOPHORE_FEATURES>
11
1 3 acceptor
1 3 donor
1 4 acceptor
1 4 donor
1 5 acceptor
1 6 acceptor
1 6 donor
1 7 acceptor
1 8 acceptor
1 9 acceptor
4 1 7 8 9 anion

> <PUBCHEM_HEAVY_ATOM_COUNT>
14

> <PUBCHEM_ATOM_DEF_STEREO_COUNT>
2

> <PUBCHEM_ATOM_UDEF_STEREO_COUNT>
0

> <PUBCHEM_BOND_DEF_STEREO_COUNT>
0

> <PUBCHEM_BOND_UDEF_STEREO_COUNT>
0

> <PUBCHEM_ISOTOPIC_ATOM_COUNT>
0

> <PUBCHEM_COMPONENT_COUNT>
1

> <PUBCHEM_CACTVS_TAUTO_COUNT>
8

> <PUBCHEM_CONFORMER_ID>
0006B46700000001

> <PUBCHEM_MMFF94_ENERGY>
-17.2255

> <PUBCHEM_FEATURE_SELFOVERLAP>
55.874

> <PUBCHEM_SHAPE_FINGERPRINT>
10680689 15 18334580139871148545
11062470 55 16128658556893119498
11401426 45 18412257337680461988
124424 183 17313101964599045905
13690532 89 18410008840849634186
13922767 16 18409727378599810240
14123238 8 18272651268117245998
14252887 29 18412831261623620674
14325111 11 18410854365043383173
17802600 8 18408598193243478829
17834072 33 18131347565770573380
17834076 25 17346881165428346576
18186145 218 18201446860668880823
18342897 14 18259702289849670152
190213 19 17988924466123729311
20279233 1 18113903762082382171
20645477 70 18272088232565724686
20671657 1 18192999450383070452
22485316 2 18410852135855298670
23402539 116 18411692180198305260
23402655 69 18272084963857806597
23557571 272 14117526436796485497
366044 4 18408601483209624018
42788 4 18411416224602651404

> <PUBCHEM_SHAPE_MULTIPOLES>
245.01
9.68
1.28
0.82
0.08
0.1
-0.2
0
-0.02
0.02
0.17
0.6
0.05
0.1

> <PUBCHEM_SHAPE_SELFOVERLAP>
456.775

> <PUBCHEM_SHAPE_VOLUME>
153

> <PUBCHEM_COORDINATE_TYPE>
2
5
10

$$$$
