440028
  -OEChem-02062310113D

 23 22  0     1  0  0  0  0  0999 V2000
   -2.9304    0.0162    0.0602 P   0  0  0  0  0  0  0  0  0  0  0  0
   -1.4468   -0.6045    0.2134 O   0  0  0  0  0  0  0  0  0  0  0  0
    1.0200   -1.4997   -0.7460 O   0  0  0  0  0  0  0  0  0  0  0  0
    2.2810    1.0666   -0.9664 O   0  0  0  0  0  0  0  0  0  0  0  0
    4.6142    0.3804    0.3612 O   0  0  0  0  0  0  0  0  0  0  0  0
   -2.8621    0.8408   -1.3293 O   0  0  0  0  0  0  0  0  0  0  0  0
   -2.9460    1.1800    1.1829 O   0  0  0  0  0  0  0  0  0  0  0  0
   -4.0502   -0.9777    0.1620 O   0  0  0  0  0  0  0  0  0  0  0  0
    0.9499   -0.5291    0.3006 C   0  0  1  0  0  0  0  0  0  0  0  0
    2.2148    0.3408    0.2623 C   0  0  1  0  0  0  0  0  0  0  0  0
   -0.3336    0.2797    0.1276 C   0  0  0  0  0  0  0  0  0  0  0  0
    3.4894   -0.4934    0.3715 C   0  0  0  0  0  0  0  0  0  0  0  0
    0.9113   -1.0854    1.2446 H   0  0  0  0  0  0  0  0  0  0  0  0
    2.1923    1.0809    1.0713 H   0  0  0  0  0  0  0  0  0  0  0  0
   -0.4092    1.0451    0.9057 H   0  0  0  0  0  0  0  0  0  0  0  0
   -0.3589    0.7562   -0.8570 H   0  0  0  0  0  0  0  0  0  0  0  0
    3.5108   -1.0837    1.2926 H   0  0  0  0  0  0  0  0  0  0  0  0
    3.6045   -1.1655   -0.4843 H   0  0  0  0  0  0  0  0  0  0  0  0
    0.2093   -2.0351   -0.7013 H   0  0  0  0  0  0  0  0  0  0  0  0
    1.6071    1.7663   -0.9336 H   0  0  0  0  0  0  0  0  0  0  0  0
    4.5390    0.9631    1.1360 H   0  0  0  0  0  0  0  0  0  0  0  0
   -3.6785    1.2640   -1.6706 H   0  0  0  0  0  0  0  0  0  0  0  0
   -3.7838    1.6590    1.3583 H   0  0  0  0  0  0  0  0  0  0  0  0
  1  2  1  0  0  0  0
  1  6  1  0  0  0  0
  1  7  1  0  0  0  0
  1  8  2  0  0  0  0
  2 11  1  0  0  0  0
  3  9  1  0  0  0  0
  3 19  1  0  0  0  0
  4 10  1  0  0  0  0
  4 20  1  0  0  0  0
  5 12  1  0  0  0  0
  5 21  1  0  0  0  0
  6 22  1  0  0  0  0
  7 23  1  0  0  0  0
  9 10  1  0  0  0  0
  9 11  1  0  0  0  0
  9 13  1  0  0  0  0
 10 12  1  0  0  0  0
 10 14  1  0  0  0  0
 11 15  1  0  0  0  0
 11 16  1  0  0  0  0
 12 17  1  0  0  0  0
 12 18  1  0  0  0  0
M  END
> <PUBCHEM_COMPOUND_CID>
440028

> <PUBCHEM_CONFORMER_RMSD>
0.6

> <PUBCHEM_CONFORMER_DIVERSEORDER>
1
53
51
14
20
56
40
18
27
37
47
10
61
31
26
21
62
29
3
59
22
17
8
7
41
46
2
12
49
43
48
11
23
42
19
55
60
6
32
45
15
33
54
38
25
57
50
16
13
4
58
36
5
44
35
34
28
24
52
9
30
39

> <PUBCHEM_MMFF94_PARTIAL_CHARGES>
17
1 1.51
10 0.28
11 0.28
12 0.28
19 0.4
2 -0.55
20 0.4
21 0.4
22 0.5
23 0.5
3 -0.68
4 -0.68
5 -0.68
6 -0.77
7 -0.77
8 -0.7
9 0.28

> <PUBCHEM_EFFECTIVE_ROTOR_COUNT>
5

> <PUBCHEM_PHARMACOPHORE_FEATURES>
10
1 3 acceptor
1 3 donor
1 4 acceptor
1 4 donor
1 5 acceptor
1 5 donor
1 6 acceptor
1 7 acceptor
1 8 acceptor
4 1 6 7 8 anion

> <PUBCHEM_HEAVY_ATOM_COUNT>
12

> <PUBCHEM_ATOM_DEF_STEREO_COUNT>
2

> <PUBCHEM_ATOM_UDEF_STEREO_COUNT>
0

> <PUBCHEM_BOND_DEF_STEREO_COUNT>
0

> <PUBCHEM_BOND_UDEF_STEREO_COUNT>
0

> <PUBCHEM_ISOTOPIC_ATOM_COUNT>
0

> <PUBCHEM_COMPONENT_COUNT>
1

> <PUBCHEM_CACTVS_TAUTO_COUNT>
1

> <PUBCHEM_CONFORMER_ID>
0006B6DC00000001

> <PUBCHEM_MMFF94_ENERGY>
-12.1622

> <PUBCHEM_FEATURE_SELFOVERLAP>
50.799

> <PUBCHEM_SHAPE_FINGERPRINT>
10219947 1 18334011675295841650
11062470 55 18334010592768878410
12162725 195 18113621196294631101
124424 183 16877937226640363708
12932764 1 17749396914511535003
14325111 11 18202003213774159602
18186145 218 18336552607654438082
190213 19 18342458136067442889
200 152 18271515473270469791
20281407 28 10881397642832537878
20645464 45 17967820418555096179
23402539 116 17967522502496538399
23557571 272 18186801357735118421
3248919 1 18342457006760147371
57812782 119 16950281810276861921

> <PUBCHEM_SHAPE_MULTIPOLES>
209.72
7.75
1.12
0.93
1.01
0.08
0.1
-0.45
-0.74
-0.22
0.13
-0.39
-0.22
-0.1

> <PUBCHEM_SHAPE_SELFOVERLAP>
381.048

> <PUBCHEM_SHAPE_VOLUME>
134.3

> <PUBCHEM_COORDINATE_TYPE>
2
5
10

$$$$
