441187
  -OEChem-02062310123D

 25 24  0     1  0  0  0  0  0999 V2000
   -2.9232    0.6050   -0.2034 P   0  0  0  0  0  0  0  0  0  0  0  0
   -0.0306   -2.6151   -0.3199 O   0  0  0  0  0  0  0  0  0  0  0  0
    2.4243   -1.4248   -0.8363 O   0  0  0  0  0  0  0  0  0  0  0  0
   -1.5576   -0.2431   -0.3658 O   0  0  0  0  0  0  0  0  0  0  0  0
    2.5155    0.2455    1.4713 O   0  0  0  0  0  0  0  0  0  0  0  0
    4.0041    1.6174   -0.2840 O   0  0  0  0  0  0  0  0  0  0  0  0
   -2.5134    1.8082    0.7962 O   0  0  0  0  0  0  0  0  0  0  0  0
   -3.8308   -0.3579    0.7261 O   0  0  0  0  0  0  0  0  0  0  0  0
   -3.5649    1.0312   -1.4913 O   0  0  0  0  0  0  0  0  0  0  0  0
    1.3259   -0.6072   -0.4300 C   0  0  1  0  0  0  0  0  0  0  0  0
    0.3649   -1.4575    0.4148 C   0  0  1  0  0  0  0  0  0  0  0  0
    1.8516    0.6474    0.2816 C   0  0  2  0  0  0  0  0  0  0  0  0
   -0.8919   -0.6821    0.8141 C   0  0  0  0  0  0  0  0  0  0  0  0
    2.8260    1.4330   -0.5734 C   0  0  0  0  0  0  0  0  0  0  0  0
    0.8783   -1.8224    1.3118 H   0  0  0  0  0  0  0  0  0  0  0  0
    0.8336   -0.3135   -1.3646 H   0  0  0  0  0  0  0  0  0  0  0  0
    1.0347    1.3249    0.5479 H   0  0  0  0  0  0  0  0  0  0  0  0
   -0.6514    0.1715    1.4531 H   0  0  0  0  0  0  0  0  0  0  0  0
   -1.5682   -1.3450    1.3639 H   0  0  0  0  0  0  0  0  0  0  0  0
   -0.6106   -3.1443    0.2538 H   0  0  0  0  0  0  0  0  0  0  0  0
    2.9094   -1.6847   -0.0344 H   0  0  0  0  0  0  0  0  0  0  0  0
    2.4031    1.8537   -1.5020 H   0  0  0  0  0  0  0  0  0  0  0  0
    2.7381    1.0513    1.9684 H   0  0  0  0  0  0  0  0  0  0  0  0
   -3.1756    2.5025    0.9998 H   0  0  0  0  0  0  0  0  0  0  0  0
   -4.7630   -0.1076    0.9009 H   0  0  0  0  0  0  0  0  0  0  0  0
  1  4  1  0  0  0  0
  1  7  1  0  0  0  0
  1  8  1  0  0  0  0
  1  9  2  0  0  0  0
  2 11  1  0  0  0  0
  2 20  1  0  0  0  0
  3 10  1  0  0  0  0
  3 21  1  0  0  0  0
  4 13  1  0  0  0  0
  5 12  1  0  0  0  0
  5 23  1  0  0  0  0
  6 14  2  0  0  0  0
  7 24  1  0  0  0  0
  8 25  1  0  0  0  0
 10 11  1  0  0  0  0
 10 12  1  0  0  0  0
 10 16  1  0  0  0  0
 11 13  1  0  0  0  0
 11 15  1  0  0  0  0
 12 14  1  0  0  0  0
 12 17  1  0  0  0  0
 13 18  1  0  0  0  0
 13 19  1  0  0  0  0
 14 22  1  0  0  0  0
M  END
> <PUBCHEM_COMPOUND_CID>
441187

> <PUBCHEM_CONFORMER_RMSD>
0.6

> <PUBCHEM_CONFORMER_DIVERSEORDER>
2
57
74
9
60
46
69
76
30
5
61
8
33
73
13
28
10
31
16
51
54
50
3
34
35
58
42
49
25
23
40
7
18
66
52
53
24
55
64
6
36
75
19
38
70
37
45
41
29
17
12
11
59
72
47
1
27
22
44
56
32
68
63
20
48
21
77
39
43
65
71
4
14
67
62
26
15

> <PUBCHEM_MMFF94_PARTIAL_CHARGES>
20
1 1.51
10 0.28
11 0.28
12 0.34
13 0.28
14 0.45
2 -0.68
20 0.4
21 0.4
22 0.06
23 0.4
24 0.5
25 0.5
3 -0.68
4 -0.55
5 -0.68
6 -0.57
7 -0.77
8 -0.77
9 -0.7

> <PUBCHEM_EFFECTIVE_ROTOR_COUNT>
6

> <PUBCHEM_PHARMACOPHORE_FEATURES>
11
1 2 acceptor
1 2 donor
1 3 acceptor
1 3 donor
1 5 acceptor
1 5 donor
1 6 acceptor
1 7 acceptor
1 8 acceptor
1 9 acceptor
4 1 7 8 9 anion

> <PUBCHEM_HEAVY_ATOM_COUNT>
14

> <PUBCHEM_ATOM_DEF_STEREO_COUNT>
3

> <PUBCHEM_ATOM_UDEF_STEREO_COUNT>
0

> <PUBCHEM_BOND_DEF_STEREO_COUNT>
0

> <PUBCHEM_BOND_UDEF_STEREO_COUNT>
0

> <PUBCHEM_ISOTOPIC_ATOM_COUNT>
0

> <PUBCHEM_COMPONENT_COUNT>
1

> <PUBCHEM_CACTVS_TAUTO_COUNT>
8

> <PUBCHEM_CONFORMER_ID>
0006BB6300000002

> <PUBCHEM_MMFF94_ENERGY>
-12.1247

> <PUBCHEM_FEATURE_SELFOVERLAP>
55.883

> <PUBCHEM_SHAPE_FINGERPRINT>
10149128 111 18336269023870007540
10149128 76 18411423920751470734
11031198 65 18202290224974160286
12138202 97 18270119153210996550
12932764 1 16988560186938577233
13618510 140 18410292510190961125
13764800 53 18262811781615472915
14115302 16 11311239627694829986
14250199 8 18270117899048728821
15775835 57 17967245429391859468
170605 34 18334296474165776418
18186145 218 18340211790893976127
20645477 56 18195253441072778840
20671657 1 18410012118031149706
21028194 46 18187089438070843075
21499 59 18411132550154299079
21524375 3 18334858359072855306
21947302 44 18411702049838128338
230 275 18339071605857289890
231179 274 17894908534021075972
23402539 116 18341324608319820836
25 1 18272658956309094392
305870 269 18187357718802739938
6333272 397 18334861649033582827
8050 44 18261390023087113029
81228 2 17551502671090586291
83771 10 10015587211556118476

> <PUBCHEM_SHAPE_MULTIPOLES>
245.01
6.47
2.02
1.08
1.7
0.6
0.04
-3.79
-0.6
-0.57
-0.25
0.2
-0.12
0.26

> <PUBCHEM_SHAPE_SELFOVERLAP>
456.807

> <PUBCHEM_SHAPE_VOLUME>
152.8

> <PUBCHEM_COORDINATE_TYPE>
2
5
10

$$$$
