447096
  -OEChem-02062310133D

 29 29  0     1  0  0  0  0  0999 V2000
   -3.3337   -0.0047    0.3864 P   0  0  0  0  0  0  0  0  0  0  0  0
    0.6973    1.4034   -0.0585 O   0  0  0  0  0  0  0  0  0  0  0  0
    0.6257   -2.0487   -1.3094 O   0  0  0  0  0  0  0  0  0  0  0  0
    2.8697   -2.0786    0.5524 O   0  0  0  0  0  0  0  0  0  0  0  0
    2.2016    0.1528    2.0468 O   0  0  0  0  0  0  0  0  0  0  0  0
    2.7791    1.9202   -1.0738 O   0  0  0  0  0  0  0  0  0  0  0  0
   -1.7219    0.0617    0.2415 O   0  0  0  0  0  0  0  0  0  0  0  0
   -3.7724   -1.1064   -0.7130 O   0  0  0  0  0  0  0  0  0  0  0  0
   -3.8146    1.3912   -0.2736 O   0  0  0  0  0  0  0  0  0  0  0  0
   -3.8347   -0.2532    1.7791 O   0  0  0  0  0  0  0  0  0  0  0  0
    0.8885   -1.0162   -0.3628 C   0  0  1  0  0  0  0  0  0  0  0  0
    2.3955   -0.9150   -0.1200 C   0  0  1  0  0  0  0  0  0  0  0  0
    0.3537    0.3111   -0.9151 C   0  0  1  0  0  0  0  0  0  0  0  0
    2.7275    0.3139    0.7282 C   0  0  1  0  0  0  0  0  0  0  0  0
    2.1058    1.5759    0.1322 C   0  0  2  0  0  0  0  0  0  0  0  0
   -1.1671    0.2928   -1.0404 C   0  0  0  0  0  0  0  0  0  0  0  0
    0.3951   -1.2935    0.5767 H   0  0  0  0  0  0  0  0  0  0  0  0
    2.9243   -0.8681   -1.0791 H   0  0  0  0  0  0  0  0  0  0  0  0
    0.7627    0.4982   -1.9166 H   0  0  0  0  0  0  0  0  0  0  0  0
    3.8148    0.4223    0.8172 H   0  0  0  0  0  0  0  0  0  0  0  0
    2.2276    2.4059    0.8376 H   0  0  0  0  0  0  0  0  0  0  0  0
   -1.5017   -0.4760   -1.7427 H   0  0  0  0  0  0  0  0  0  0  0  0
   -1.5138    1.2677   -1.3991 H   0  0  0  0  0  0  0  0  0  0  0  0
   -0.3237   -2.2527   -1.2712 H   0  0  0  0  0  0  0  0  0  0  0  0
    2.3110   -2.2277    1.3337 H   0  0  0  0  0  0  0  0  0  0  0  0
    2.6960   -0.5682    2.4720 H   0  0  0  0  0  0  0  0  0  0  0  0
    2.6857    2.8809   -1.1898 H   0  0  0  0  0  0  0  0  0  0  0  0
   -4.7144   -1.3745   -0.7666 H   0  0  0  0  0  0  0  0  0  0  0  0
   -4.7631    1.6364   -0.2265 H   0  0  0  0  0  0  0  0  0  0  0  0
  1  7  1  0  0  0  0
  1  8  1  0  0  0  0
  1  9  1  0  0  0  0
  1 10  2  0  0  0  0
  2 13  1  0  0  0  0
  2 15  1  0  0  0  0
  3 11  1  0  0  0  0
  3 24  1  0  0  0  0
  4 12  1  0  0  0  0
  4 25  1  0  0  0  0
  5 14  1  0  0  0  0
  5 26  1  0  0  0  0
  6 15  1  0  0  0  0
  6 27  1  0  0  0  0
  7 16  1  0  0  0  0
  8 28  1  0  0  0  0
  9 29  1  0  0  0  0
 11 12  1  0  0  0  0
 11 13  1  0  0  0  0
 11 17  1  0  0  0  0
 12 14  1  0  0  0  0
 12 18  1  0  0  0  0
 13 16  1  0  0  0  0
 13 19  1  0  0  0  0
 14 15  1  0  0  0  0
 14 20  1  0  0  0  0
 15 21  1  0  0  0  0
 16 22  1  0  0  0  0
 16 23  1  0  0  0  0
M  END
> <PUBCHEM_COMPOUND_CID>
447096

> <PUBCHEM_CONFORMER_RMSD>
0.6

> <PUBCHEM_CONFORMER_DIVERSEORDER>
1
26
8
19
13
23
15
21
18
25
16
5
3
11
12
4
24
20
9
7
14
10
6
22
2
17

> <PUBCHEM_MMFF94_PARTIAL_CHARGES>
22
1 1.51
10 -0.7
11 0.28
12 0.28
13 0.28
14 0.28
15 0.56
16 0.28
2 -0.56
24 0.4
25 0.4
26 0.4
27 0.4
28 0.5
29 0.5
3 -0.68
4 -0.68
5 -0.68
6 -0.68
7 -0.55
8 -0.77
9 -0.77

> <PUBCHEM_EFFECTIVE_ROTOR_COUNT>
4.2

> <PUBCHEM_PHARMACOPHORE_FEATURES>
14
1 10 acceptor
1 2 acceptor
1 3 acceptor
1 3 donor
1 4 acceptor
1 4 donor
1 5 acceptor
1 5 donor
1 6 acceptor
1 6 donor
1 8 acceptor
1 9 acceptor
4 1 8 9 10 anion
6 2 11 12 13 14 15 rings

> <PUBCHEM_HEAVY_ATOM_COUNT>
16

> <PUBCHEM_ATOM_DEF_STEREO_COUNT>
5

> <PUBCHEM_ATOM_UDEF_STEREO_COUNT>
0

> <PUBCHEM_BOND_DEF_STEREO_COUNT>
0

> <PUBCHEM_BOND_UDEF_STEREO_COUNT>
0

> <PUBCHEM_ISOTOPIC_ATOM_COUNT>
0

> <PUBCHEM_COMPONENT_COUNT>
1

> <PUBCHEM_CACTVS_TAUTO_COUNT>
1

> <PUBCHEM_CONFORMER_ID>
0006D27800000001

> <PUBCHEM_MMFF94_ENERGY>
2.048

> <PUBCHEM_FEATURE_SELFOVERLAP>
71.14

> <PUBCHEM_SHAPE_FINGERPRINT>
10980938 120 18343303686242102836
11471102 22 18408884035784886232
12251169 10 18410007749643175847
12932764 1 17989489640933734413
13296908 3 17240486922629471457
13693222 15 18412545431560536883
13705890 14 12324247139469036234
14252887 29 17677065628035685273
14289901 80 18410291432618003753
15775835 57 17346593101491866624
16945 1 18261660541707447884
18186145 218 17274829081501377481
20279233 1 16009018527848359657
20645477 70 18113608011019481975
20671657 1 18270961357790398142
21730867 7 18341896294284155821
23419403 2 11268093202868419390
23557571 272 13254789106402794787
251288 83 17749675206748602987
2748010 2 17979891858174865868
276578 36 18130511924185672600
581208 293 18336259132417549335
81539 233 17532377646031199004
9882013 296 18041846254302262225

> <PUBCHEM_SHAPE_MULTIPOLES>
280.3
6.57
1.82
1.36
6.75
0.24
0.47
-0.22
1.71
-1.32
-0.44
0.02
0.07
-0.23

> <PUBCHEM_SHAPE_SELFOVERLAP>
548.072

> <PUBCHEM_SHAPE_VOLUME>
168.5

> <PUBCHEM_COORDINATE_TYPE>
2
5
10

$$$$
