447467
  -OEChem-02062310163D

 34 34  0     1  0  0  0  0  0999 V2000
    2.2480    2.6109   -0.0108 P   0  0  0  0  0  0  0  0  0  0  0  0
   -3.9536    0.7800    0.0108 P   0  0  0  0  0  0  0  0  0  0  0  0
    0.2309    0.0256    0.3802 O   0  0  0  0  0  0  0  0  0  0  0  0
   -0.5657   -3.4027   -0.6328 O   0  0  0  0  0  0  0  0  0  0  0  0
    2.1165   -3.6226    0.4221 O   0  0  0  0  0  0  0  0  0  0  0  0
    2.2493    1.1551    0.6866 O   0  0  0  0  0  0  0  0  0  0  0  0
    3.6469   -1.1662   -0.1300 O   0  0  0  0  0  0  0  0  0  0  0  0
   -2.4104    0.3900   -0.2885 O   0  0  0  0  0  0  0  0  0  0  0  0
    0.6865    2.8854   -0.3295 O   0  0  0  0  0  0  0  0  0  0  0  0
    2.8768    2.3041   -1.4687 O   0  0  0  0  0  0  0  0  0  0  0  0
    2.9439    3.6907    0.7652 O   0  0  0  0  0  0  0  0  0  0  0  0
   -4.1250    0.4813    1.5909 O   0  0  0  0  0  0  0  0  0  0  0  0
   -4.7738   -0.4264   -0.6868 O   0  0  0  0  0  0  0  0  0  0  0  0
   -4.3555    2.1574   -0.4292 O   0  0  0  0  0  0  0  0  0  0  0  0
    0.0963   -2.3790    0.1054 C   0  0  1  0  0  0  0  0  0  0  0  0
    1.5966   -2.4376   -0.1826 C   0  0  1  0  0  0  0  0  0  0  0  0
   -0.4798   -1.0172   -0.2897 C   0  0  1  0  0  0  0  0  0  0  0  0
    2.3177   -1.2164    0.3879 C   0  0  2  0  0  0  0  0  0  0  0  0
    1.6049    0.0802    0.0037 C   0  0  1  0  0  0  0  0  0  0  0  0
   -1.9504   -0.8927    0.0959 C   0  0  0  0  0  0  0  0  0  0  0  0
   -0.0782   -2.5775    1.1701 H   0  0  0  0  0  0  0  0  0  0  0  0
    1.7870   -2.5301   -1.2590 H   0  0  0  0  0  0  0  0  0  0  0  0
   -0.3991   -0.8540   -1.3730 H   0  0  0  0  0  0  0  0  0  0  0  0
    2.4050   -1.3016    1.4775 H   0  0  0  0  0  0  0  0  0  0  0  0
    1.6751    0.2420   -1.0783 H   0  0  0  0  0  0  0  0  0  0  0  0
   -2.0649   -0.9941    1.1803 H   0  0  0  0  0  0  0  0  0  0  0  0
   -2.5489   -1.6617   -0.4015 H   0  0  0  0  0  0  0  0  0  0  0  0
   -0.4226   -3.2308   -1.5792 H   0  0  0  0  0  0  0  0  0  0  0  0
    1.6295   -4.3774    0.0493 H   0  0  0  0  0  0  0  0  0  0  0  0
    3.5908   -1.0888   -1.0978 H   0  0  0  0  0  0  0  0  0  0  0  0
    0.4248    3.7508   -0.7101 H   0  0  0  0  0  0  0  0  0  0  0  0
    3.0710    3.0548   -2.0693 H   0  0  0  0  0  0  0  0  0  0  0  0
   -4.9728    0.7103    2.0279 H   0  0  0  0  0  0  0  0  0  0  0  0
   -5.7527   -0.3757   -0.7238 H   0  0  0  0  0  0  0  0  0  0  0  0
  1  6  1  0  0  0  0
  1  9  1  0  0  0  0
  1 10  1  0  0  0  0
  1 11  2  0  0  0  0
  2  8  1  0  0  0  0
  2 12  1  0  0  0  0
  2 13  1  0  0  0  0
  2 14  2  0  0  0  0
  3 17  1  0  0  0  0
  3 19  1  0  0  0  0
  4 15  1  0  0  0  0
  4 28  1  0  0  0  0
  5 16  1  0  0  0  0
  5 29  1  0  0  0  0
  6 19  1  0  0  0  0
  7 18  1  0  0  0  0
  7 30  1  0  0  0  0
  8 20  1  0  0  0  0
  9 31  1  0  0  0  0
 10 32  1  0  0  0  0
 12 33  1  0  0  0  0
 13 34  1  0  0  0  0
 15 16  1  0  0  0  0
 15 17  1  0  0  0  0
 15 21  1  0  0  0  0
 16 18  1  0  0  0  0
 16 22  1  0  0  0  0
 17 20  1  0  0  0  0
 17 23  1  0  0  0  0
 18 19  1  0  0  0  0
 18 24  1  0  0  0  0
 19 25  1  0  0  0  0
 20 26  1  0  0  0  0
 20 27  1  0  0  0  0
M  END
> <PUBCHEM_COMPOUND_CID>
447467

> <PUBCHEM_CONFORMER_RMSD>
0.8

> <PUBCHEM_CONFORMER_DIVERSEORDER>
1
36
34
10
18
43
4
29
15
37
33
30
5
35
23
41
3
11
12
42
2
38
24
19
7
26
14
27
8
21
31
13
32
6
17
25
40
22
16
20
39
9
28

> <PUBCHEM_MMFF94_PARTIAL_CHARGES>
27
1 1.51
10 -0.77
11 -0.7
12 -0.77
13 -0.77
14 -0.7
15 0.28
16 0.28
17 0.28
18 0.28
19 0.56
2 1.51
20 0.28
28 0.4
29 0.4
3 -0.56
30 0.4
31 0.5
32 0.5
33 0.5
34 0.5
4 -0.68
5 -0.68
6 -0.55
7 -0.68
8 -0.55
9 -0.77

> <PUBCHEM_EFFECTIVE_ROTOR_COUNT>
6.2

> <PUBCHEM_PHARMACOPHORE_FEATURES>
16
1 10 acceptor
1 11 acceptor
1 12 acceptor
1 13 acceptor
1 14 acceptor
1 3 acceptor
1 4 acceptor
1 4 donor
1 5 acceptor
1 5 donor
1 7 acceptor
1 7 donor
1 9 acceptor
4 1 9 10 11 anion
4 2 12 13 14 anion
6 3 15 16 17 18 19 rings

> <PUBCHEM_HEAVY_ATOM_COUNT>
20

> <PUBCHEM_ATOM_DEF_STEREO_COUNT>
5

> <PUBCHEM_ATOM_UDEF_STEREO_COUNT>
0

> <PUBCHEM_BOND_DEF_STEREO_COUNT>
0

> <PUBCHEM_BOND_UDEF_STEREO_COUNT>
0

> <PUBCHEM_ISOTOPIC_ATOM_COUNT>
0

> <PUBCHEM_COMPONENT_COUNT>
1

> <PUBCHEM_CACTVS_TAUTO_COUNT>
1

> <PUBCHEM_CONFORMER_ID>
0006D3EB00000001

> <PUBCHEM_MMFF94_ENERGY>
-22.9497

> <PUBCHEM_FEATURE_SELFOVERLAP>
81.287

> <PUBCHEM_SHAPE_FINGERPRINT>
10967382 1 18338795611522846130
116883 192 17475512772578818871
12173636 292 17978506769354372158
13134695 92 18192705635938593783
13140716 1 18336821013356903730
138480 1 18266736879044369097
14026960 21 18335708299078644523
14123255 52 18267302229921542593
14178342 30 17905876330011937616
14790565 3 18410301289795431436
1601671 61 18337672988755035214
17134986 127 18265055910765500756
1741750 31 18125441070836874720
18186145 218 18272658939224183785
18785283 64 18261684739104923960
20567600 299 18268703914263786925
20621476 13 18192983834272307245
20671657 1 18412545435269902884
20739085 24 17982186521161246274
21041028 32 17905040348670959358
21524375 3 18263358247421140803
21665062 11 18267028266853006995
21709351 56 18341039723624458559
2255824 54 18340769256258861719
23557571 272 13829841380253284705
23558518 356 17901660789635936722
23559900 14 18339350852526689059
23598291 2 18131057264709884039
2748010 2 18192998338339695550
3060560 45 18200309909906683766
3091708 16 9329769015663921834
350125 39 18193844962045169786
474 4 18411693322664796235
58051976 378 17908418404826261262
5939293 188 18267576914575745474
7364860 26 18411135840094076724
81228 2 17256537313845541034
84936 182 18201153355578952049

> <PUBCHEM_SHAPE_MULTIPOLES>
348.86
7.31
4.49
0.89
9.49
0.25
-0.05
3.9
-0.1
-4.41
0.15
0.17
0.3
-0.22

> <PUBCHEM_SHAPE_SELFOVERLAP>
671.694

> <PUBCHEM_SHAPE_VOLUME>
213.1

> <PUBCHEM_COORDINATE_TYPE>
2
5
10

$$$$
