448027
  -OEChem-02062310123D

 27 26  0     1  0  0  0  0  0999 V2000
    2.6842    0.5055   -0.1118 P   0  0  0  0  0  0  0  0  0  0  0  0
   -2.6514   -1.0395   -0.8735 O   0  0  0  0  0  0  0  0  0  0  0  0
   -0.3843   -2.6605   -0.7871 O   0  0  0  0  0  0  0  0  0  0  0  0
   -2.3933    0.0040    1.7353 O   0  0  0  0  0  0  0  0  0  0  0  0
    1.5902   -0.6438   -0.4296 O   0  0  0  0  0  0  0  0  0  0  0  0
   -2.1148    2.3430   -1.0533 O   0  0  0  0  0  0  0  0  0  0  0  0
    3.5986   -0.1458    1.0523 O   0  0  0  0  0  0  0  0  0  0  0  0
    1.8172    1.6201    0.6762 O   0  0  0  0  0  0  0  0  0  0  0  0
    3.4346    1.0150   -1.3075 O   0  0  0  0  0  0  0  0  0  0  0  0
   -1.4095   -0.4991   -0.4060 C   0  0  2  0  0  0  0  0  0  0  0  0
   -0.5468   -1.6303    0.1856 C   0  0  2  0  0  0  0  0  0  0  0  0
   -1.7634    0.6125    0.6003 C   0  0  1  0  0  0  0  0  0  0  0  0
    0.8385   -1.1776    0.6485 C   0  0  0  0  0  0  0  0  0  0  0  0
   -2.6996    1.6966    0.0706 C   0  0  0  0  0  0  0  0  0  0  0  0
   -0.9132   -0.0745   -1.2855 H   0  0  0  0  0  0  0  0  0  0  0  0
   -1.0677   -2.0962    1.0301 H   0  0  0  0  0  0  0  0  0  0  0  0
   -0.8390    1.0857    0.9459 H   0  0  0  0  0  0  0  0  0  0  0  0
    0.7560   -0.4628    1.4720 H   0  0  0  0  0  0  0  0  0  0  0  0
    1.3956   -2.0449    1.0202 H   0  0  0  0  0  0  0  0  0  0  0  0
   -2.9032    2.4478    0.8416 H   0  0  0  0  0  0  0  0  0  0  0  0
   -3.6685    1.2823   -0.2268 H   0  0  0  0  0  0  0  0  0  0  0  0
   -3.1072   -1.4336   -0.1100 H   0  0  0  0  0  0  0  0  0  0  0  0
   -1.2726   -2.9371   -1.0703 H   0  0  0  0  0  0  0  0  0  0  0  0
   -2.5532    0.7041    2.3910 H   0  0  0  0  0  0  0  0  0  0  0  0
   -1.2660    2.7195   -0.7649 H   0  0  0  0  0  0  0  0  0  0  0  0
    4.3852    0.3470    1.3693 H   0  0  0  0  0  0  0  0  0  0  0  0
    2.2385    2.4761    0.9036 H   0  0  0  0  0  0  0  0  0  0  0  0
  1  5  1  0  0  0  0
  1  7  1  0  0  0  0
  1  8  1  0  0  0  0
  1  9  2  0  0  0  0
  2 10  1  0  0  0  0
  2 22  1  0  0  0  0
  3 11  1  0  0  0  0
  3 23  1  0  0  0  0
  4 12  1  0  0  0  0
  4 24  1  0  0  0  0
  5 13  1  0  0  0  0
  6 14  1  0  0  0  0
  6 25  1  0  0  0  0
  7 26  1  0  0  0  0
  8 27  1  0  0  0  0
 10 11  1  0  0  0  0
 10 12  1  0  0  0  0
 10 15  1  0  0  0  0
 11 13  1  0  0  0  0
 11 16  1  0  0  0  0
 12 14  1  0  0  0  0
 12 17  1  0  0  0  0
 13 18  1  0  0  0  0
 13 19  1  0  0  0  0
 14 20  1  0  0  0  0
 14 21  1  0  0  0  0
M  END
> <PUBCHEM_COMPOUND_CID>
448027

> <PUBCHEM_CONFORMER_RMSD>
0.6

> <PUBCHEM_CONFORMER_DIVERSEORDER>
6
55
87
103
21
83
52
86
19
111
15
63
113
99
61
3
66
51
28
18
25
69
88
41
65
94
64
40
7
71
112
56
31
110
11
77
24
60
67
102
38
20
45
78
26
46
109
116
98
70
89
29
68
80
5
57
76
13
91
12
47
53
73
50
42
33
58
75
106
23
4
74
96
48
39
81
114
34
90
44
49
108
1
79
2
14
82
115
84
36
10
16
107
37
9
97
93
30
54
85
8
62
92
104
17
95
100
43
101
35
32
59
72
27
22
105

> <PUBCHEM_MMFF94_PARTIAL_CHARGES>
20
1 1.51
10 0.28
11 0.28
12 0.28
13 0.28
14 0.28
2 -0.68
22 0.4
23 0.4
24 0.4
25 0.4
26 0.5
27 0.5
3 -0.68
4 -0.68
5 -0.55
6 -0.68
7 -0.77
8 -0.77
9 -0.7

> <PUBCHEM_EFFECTIVE_ROTOR_COUNT>
6

> <PUBCHEM_PHARMACOPHORE_FEATURES>
12
1 2 acceptor
1 2 donor
1 3 acceptor
1 3 donor
1 4 acceptor
1 4 donor
1 6 acceptor
1 6 donor
1 7 acceptor
1 8 acceptor
1 9 acceptor
4 1 7 8 9 anion

> <PUBCHEM_HEAVY_ATOM_COUNT>
14

> <PUBCHEM_ATOM_DEF_STEREO_COUNT>
3

> <PUBCHEM_ATOM_UDEF_STEREO_COUNT>
0

> <PUBCHEM_BOND_DEF_STEREO_COUNT>
0

> <PUBCHEM_BOND_UDEF_STEREO_COUNT>
0

> <PUBCHEM_ISOTOPIC_ATOM_COUNT>
0

> <PUBCHEM_COMPONENT_COUNT>
1

> <PUBCHEM_CACTVS_TAUTO_COUNT>
1

> <PUBCHEM_CONFORMER_ID>
0006D61B00000006

> <PUBCHEM_MMFF94_ENERGY>
-5.4531

> <PUBCHEM_FEATURE_SELFOVERLAP>
60.952

> <PUBCHEM_SHAPE_FINGERPRINT>
12932764 1 18412549842296784264
13618510 140 18337957766277058788
14614273 12 18342733001501175647
15775835 57 18410579465540517201
16945 1 18269555094981867914
18186145 218 17775292633917533442
18522851 268 16917067819060195828
20653085 51 18337963311195732986
21028194 46 18412545396683950906
21130352 189 17329708721921424719
21524375 3 18409727318438593651
21947302 44 17828479163827684501
22959321 28 17896618330178210560
23402539 116 18057305378925058783
23557571 272 16773215414136887755
23559900 14 18059864952997128364
2748010 2 18268436741263862750
305870 269 18336821975255673458
81228 2 17982451799726749074

> <PUBCHEM_SHAPE_MULTIPOLES>
245.01
5.29
2.29
1.19
3.15
0.23
-0.14
-2.5
0.05
-1.02
0.63
-0.09
-0.09
-0.19

> <PUBCHEM_SHAPE_SELFOVERLAP>
451.708

> <PUBCHEM_SHAPE_VOLUME>
154.7

> <PUBCHEM_COORDINATE_TYPE>
2
5
10

$$$$
