46936563
  -OEChem-02062310113D

 26 25  0     1  0  0  0  0  0999 V2000
   -3.4260   -0.6125   -0.2268 P   0  0  0  0  0  0  0  0  0  0  0  0
    0.9577   -0.1384    1.6481 O   0  0  0  0  0  0  0  0  0  0  0  0
    0.4734    2.4634    0.4672 O   0  0  0  0  0  0  0  0  0  0  0  0
   -1.8876   -0.1768   -0.4705 O   0  0  0  0  0  0  0  0  0  0  0  0
    2.5952    1.0136   -1.3772 O   0  0  0  0  0  0  0  0  0  0  0  0
    3.4090   -1.4369    1.0996 O   0  0  0  0  0  0  0  0  0  0  0  0
    3.9394   -1.2473   -1.0972 O   0  0  0  0  0  0  0  0  0  0  0  0
   -4.2639    0.7284   -0.5664 O   0  0  0  0  0  0  0  0  0  0  0  0
   -3.5194   -0.7112    1.3845 O   0  0  0  0  0  0  0  0  0  0  0  0
   -3.8615   -1.8451   -0.9637 O   0  0  0  0  0  0  0  0  0  0  0  0
    1.0426    0.1137    0.2459 C   0  0  1  0  0  0  0  0  0  0  0  0
    0.0675    1.2426   -0.1513 C   0  0  1  0  0  0  0  0  0  0  0  0
    2.5096    0.4409   -0.0785 C   0  0  1  0  0  0  0  0  0  0  0  0
   -1.4003    0.9808    0.1930 C   0  0  0  0  0  0  0  0  0  0  0  0
    3.3642   -0.8151   -0.1067 C   0  0  0  0  0  0  0  0  0  0  0  0
    0.7440   -0.8075   -0.2684 H   0  0  0  0  0  0  0  0  0  0  0  0
    0.1343    1.3855   -1.2368 H   0  0  0  0  0  0  0  0  0  0  0  0
    2.9463    1.1418    0.6419 H   0  0  0  0  0  0  0  0  0  0  0  0
   -1.5169    0.8670    1.2763 H   0  0  0  0  0  0  0  0  0  0  0  0
   -2.0029    1.8473   -0.1015 H   0  0  0  0  0  0  0  0  0  0  0  0
    1.1455    0.6962    2.1106 H   0  0  0  0  0  0  0  0  0  0  0  0
   -0.1158    3.1669    0.1457 H   0  0  0  0  0  0  0  0  0  0  0  0
    3.5129    1.3082   -1.5080 H   0  0  0  0  0  0  0  0  0  0  0  0
    3.9537   -2.2522    1.0707 H   0  0  0  0  0  0  0  0  0  0  0  0
   -5.2440    0.6919   -0.5518 H   0  0  0  0  0  0  0  0  0  0  0  0
   -4.3436   -1.0529    1.7921 H   0  0  0  0  0  0  0  0  0  0  0  0
  1  4  1  0  0  0  0
  1  8  1  0  0  0  0
  1  9  1  0  0  0  0
  1 10  2  0  0  0  0
  2 11  1  0  0  0  0
  2 21  1  0  0  0  0
  3 12  1  0  0  0  0
  3 22  1  0  0  0  0
  4 14  1  0  0  0  0
  5 13  1  0  0  0  0
  5 23  1  0  0  0  0
  6 15  1  0  0  0  0
  6 24  1  0  0  0  0
  7 15  2  0  0  0  0
  8 25  1  0  0  0  0
  9 26  1  0  0  0  0
 11 12  1  0  0  0  0
 11 13  1  0  0  0  0
 11 16  1  0  0  0  0
 12 14  1  0  0  0  0
 12 17  1  0  0  0  0
 13 15  1  0  0  0  0
 13 18  1  0  0  0  0
 14 19  1  0  0  0  0
 14 20  1  0  0  0  0
M  END
> <PUBCHEM_COMPOUND_CID>
46936563

> <PUBCHEM_CONFORMER_RMSD>
0.8

> <PUBCHEM_CONFORMER_DIVERSEORDER>
1
50
66
61
41
36
30
55
49
14
58
17
64
11
33
71
4
48
42
43
57
2
74
68
51
34
20
69
67
31
46
56
13
70
29
16
7
25
15
37
5
35
27
9
45
3
18
6
12
72
47
39
60
8
44
54
23
26
53
65
32
38
63
28
24
73
10
21
59
52
40
62
19
22

> <PUBCHEM_MMFF94_PARTIAL_CHARGES>
21
1 1.51
10 -0.7
11 0.28
12 0.28
13 0.34
14 0.28
15 0.66
2 -0.68
21 0.4
22 0.4
23 0.4
24 0.5
25 0.5
26 0.5
3 -0.68
4 -0.55
5 -0.68
6 -0.65
7 -0.57
8 -0.77
9 -0.77

> <PUBCHEM_EFFECTIVE_ROTOR_COUNT>
6

> <PUBCHEM_PHARMACOPHORE_FEATURES>
13
1 10 acceptor
1 2 acceptor
1 2 donor
1 3 acceptor
1 3 donor
1 5 acceptor
1 5 donor
1 6 acceptor
1 7 acceptor
1 8 acceptor
1 9 acceptor
3 6 7 15 anion
4 1 8 9 10 anion

> <PUBCHEM_HEAVY_ATOM_COUNT>
15

> <PUBCHEM_ATOM_DEF_STEREO_COUNT>
3

> <PUBCHEM_ATOM_UDEF_STEREO_COUNT>
0

> <PUBCHEM_BOND_DEF_STEREO_COUNT>
0

> <PUBCHEM_BOND_UDEF_STEREO_COUNT>
0

> <PUBCHEM_ISOTOPIC_ATOM_COUNT>
0

> <PUBCHEM_COMPONENT_COUNT>
1

> <PUBCHEM_CACTVS_TAUTO_COUNT>
1

> <PUBCHEM_CONFORMER_ID>
02CC31F300000001

> <PUBCHEM_MMFF94_ENERGY>
-10.5589

> <PUBCHEM_FEATURE_SELFOVERLAP>
66.089

> <PUBCHEM_SHAPE_FINGERPRINT>
10465860 228 8790343147646682381
10618630 7 18342457002459931494
11543360 7 16081379578057317279
12006461 19 18060137660790631447
12251169 10 13326564172753925601
13296908 3 18410847785306693793
13705890 14 17167865279047379594
14123260 362 8358249367387212931
14252887 29 18131350817361470746
1741750 31 8574416626383992268
18186145 218 16515401884822167557
18915474 69 18409731793710159270
19422 9 18408046221089069149
200 152 18187088334527868762
20281407 28 18131350795380173483
20281475 54 18059862774245981263
20361792 2 18342170081274954285
20645477 70 18411978087349124527
20671657 53 18342176700099314065
21499 59 8142085342811907577
21524375 3 9727628401744216756
22485316 2 18341608230801291285
23402539 116 18334008372487155022
23402655 69 17458908137002043276
23503958 8 17632580491599150235
23557571 272 18200021838408683080
2838139 119 13190924063941047398
449060 23 18413108346637274639
548570 60 9367345920691612423
9882013 296 11743832577912296207

> <PUBCHEM_SHAPE_MULTIPOLES>
259.72
8.06
1.72
1.18
3.41
0.38
-0.21
-4.17
1.42
-0.09
0.07
-0.24
-0.23
-0.32

> <PUBCHEM_SHAPE_SELFOVERLAP>
489.603

> <PUBCHEM_SHAPE_VOLUME>
161.1

> <PUBCHEM_COORDINATE_TYPE>
2
5
10

$$$$
