46936435
  -OEChem-02062310133D

 28 28  0     1  0  0  0  0  0999 V2000
    3.4587    0.0910   -0.0037 P   0  0  0  0  0  0  0  0  0  0  0  0
   -0.6738    1.1057   -0.1066 O   0  0  0  0  0  0  0  0  0  0  0  0
   -1.3655   -2.4742    0.3940 O   0  0  0  0  0  0  0  0  0  0  0  0
   -3.9164   -1.4146   -0.4684 O   0  0  0  0  0  0  0  0  0  0  0  0
    1.8962    0.2936    0.3714 O   0  0  0  0  0  0  0  0  0  0  0  0
   -2.0841    2.9747   -0.0717 O   0  0  0  0  0  0  0  0  0  0  0  0
    3.4567   -0.0015   -1.6182 O   0  0  0  0  0  0  0  0  0  0  0  0
    3.7470   -1.4324    0.4558 O   0  0  0  0  0  0  0  0  0  0  0  0
    4.3878    1.1155    0.5792 O   0  0  0  0  0  0  0  0  0  0  0  0
   -1.5269   -1.1741   -0.1669 C   0  0  2  0  0  0  0  0  0  0  0  0
   -0.4348   -0.2288    0.3504 C   0  0  1  0  0  0  0  0  0  0  0  0
   -2.9173   -0.6630    0.2147 C   0  0  1  0  0  0  0  0  0  0  0  0
   -3.0705    0.8054   -0.1647 C   0  0  0  0  0  0  0  0  0  0  0  0
   -1.9101    1.6335    0.3738 C   0  0  1  0  0  0  0  0  0  0  0  0
    0.9530   -0.6308   -0.1391 C   0  0  0  0  0  0  0  0  0  0  0  0
   -1.4645   -1.2770   -1.2571 H   0  0  0  0  0  0  0  0  0  0  0  0
   -0.4158   -0.2191    1.4488 H   0  0  0  0  0  0  0  0  0  0  0  0
   -3.0877   -0.7987    1.2898 H   0  0  0  0  0  0  0  0  0  0  0  0
   -3.1160    0.8970   -1.2589 H   0  0  0  0  0  0  0  0  0  0  0  0
   -4.0290    1.2007    0.1937 H   0  0  0  0  0  0  0  0  0  0  0  0
   -1.9119    1.6361    1.4707 H   0  0  0  0  0  0  0  0  0  0  0  0
    0.9895   -0.5996   -1.2331 H   0  0  0  0  0  0  0  0  0  0  0  0
    1.2044   -1.6404    0.1996 H   0  0  0  0  0  0  0  0  0  0  0  0
   -1.3831   -2.3880    1.3624 H   0  0  0  0  0  0  0  0  0  0  0  0
   -4.7827   -1.0643   -0.1990 H   0  0  0  0  0  0  0  0  0  0  0  0
   -1.6052    3.5469    0.5516 H   0  0  0  0  0  0  0  0  0  0  0  0
    4.3141   -0.0569   -2.0914 H   0  0  0  0  0  0  0  0  0  0  0  0
    4.6655   -1.7743    0.4161 H   0  0  0  0  0  0  0  0  0  0  0  0
  1  5  1  0  0  0  0
  1  7  1  0  0  0  0
  1  8  1  0  0  0  0
  1  9  2  0  0  0  0
  2 11  1  0  0  0  0
  2 14  1  0  0  0  0
  3 10  1  0  0  0  0
  3 24  1  0  0  0  0
  4 12  1  0  0  0  0
  4 25  1  0  0  0  0
  5 15  1  0  0  0  0
  6 14  1  0  0  0  0
  6 26  1  0  0  0  0
  7 27  1  0  0  0  0
  8 28  1  0  0  0  0
 10 11  1  0  0  0  0
 10 12  1  0  0  0  0
 10 16  1  0  0  0  0
 11 15  1  0  0  0  0
 11 17  1  0  0  0  0
 12 13  1  0  0  0  0
 12 18  1  0  0  0  0
 13 14  1  0  0  0  0
 13 19  1  0  0  0  0
 13 20  1  0  0  0  0
 14 21  1  0  0  0  0
 15 22  1  0  0  0  0
 15 23  1  0  0  0  0
M  END
> <PUBCHEM_COMPOUND_CID>
46936435

> <PUBCHEM_CONFORMER_RMSD>
0.6

> <PUBCHEM_CONFORMER_DIVERSEORDER>
1
15
8
10
11
12
14
7
5
3
9
6
13
4
2

> <PUBCHEM_MMFF94_PARTIAL_CHARGES>
19
1 1.51
10 0.28
11 0.28
12 0.28
14 0.56
15 0.28
2 -0.56
24 0.4
25 0.4
26 0.4
27 0.5
28 0.5
3 -0.68
4 -0.68
5 -0.55
6 -0.68
7 -0.77
8 -0.77
9 -0.7

> <PUBCHEM_EFFECTIVE_ROTOR_COUNT>
4.2

> <PUBCHEM_PHARMACOPHORE_FEATURES>
12
1 2 acceptor
1 3 acceptor
1 3 donor
1 4 acceptor
1 4 donor
1 6 acceptor
1 6 donor
1 7 acceptor
1 8 acceptor
1 9 acceptor
4 1 7 8 9 anion
6 2 10 11 12 13 14 rings

> <PUBCHEM_HEAVY_ATOM_COUNT>
15

> <PUBCHEM_ATOM_DEF_STEREO_COUNT>
4

> <PUBCHEM_ATOM_UDEF_STEREO_COUNT>
0

> <PUBCHEM_BOND_DEF_STEREO_COUNT>
0

> <PUBCHEM_BOND_UDEF_STEREO_COUNT>
0

> <PUBCHEM_ISOTOPIC_ATOM_COUNT>
0

> <PUBCHEM_COMPONENT_COUNT>
1

> <PUBCHEM_CACTVS_TAUTO_COUNT>
1

> <PUBCHEM_CONFORMER_ID>
02CC317300000001

> <PUBCHEM_MMFF94_ENERGY>
-4.802

> <PUBCHEM_FEATURE_SELFOVERLAP>
60.982

> <PUBCHEM_SHAPE_FINGERPRINT>
10608611 8 18342454816400848432
11132069 177 18343024393320015345
12173636 292 18337669711447166349
12932764 1 18340499897701027578
13024252 1 11169911689195650763
14144814 61 18409167692916226234
14325111 11 18411135797276201208
15442244 35 18263922138462977994
15669948 3 18411135870196037454
16945 1 18409453608852223531
18186145 218 18059582334699377768
190213 19 17603585240065553602
1986462 14 18343306933390346404
20112054 60 18411979131089617061
20279233 1 18130511911522537726
20510252 161 18343021081836868545
20645477 56 18411423869096201960
20645477 70 16988574472469302766
20871998 184 18273217516922211407
21501502 16 18337953363977661474
21524375 3 17901951842173342097
2306618 200 18130510730184868937
23402539 116 18342448279624206431
23557571 272 18272657861520150060
23559900 14 18342735196403277298
23598291 2 17895762786005030334
3248919 1 17386013879467051026
43471831 8 18334292020496382331
6333449 129 18413669093488744449
81228 2 18338809982414665169
9709674 26 18413393124824202830

> <PUBCHEM_SHAPE_MULTIPOLES>
265.59
7.53
2.2
0.8
6.58
0.63
-0.2
-0.04
-0.37
-1.92
0.16
0.54
-0.02
-0.03

> <PUBCHEM_SHAPE_SELFOVERLAP>
513.361

> <PUBCHEM_SHAPE_VOLUME>
162.3

> <PUBCHEM_COORDINATE_TYPE>
2
5
10

$$$$
