49799769
  -OEChem-02062310113D

 26 25  0     1  0  0  0  0  0999 V2000
    3.5370   -0.4230    0.1504 P   0  0  0  0  0  0  0  0  0  0  0  0
   -1.5090    1.5638    1.0297 O   0  0  0  0  0  0  0  0  0  0  0  0
    0.3258    2.2283   -1.0616 O   0  0  0  0  0  0  0  0  0  0  0  0
    2.2728    0.2498   -0.6014 O   0  0  0  0  0  0  0  0  0  0  0  0
   -1.7062   -1.4052   -1.0461 O   0  0  0  0  0  0  0  0  0  0  0  0
   -3.9385    0.1393    1.2847 O   0  0  0  0  0  0  0  0  0  0  0  0
   -4.2903   -1.1719   -0.5319 O   0  0  0  0  0  0  0  0  0  0  0  0
    3.0368   -1.9267    0.4732 O   0  0  0  0  0  0  0  0  0  0  0  0
    3.5160    0.2949    1.5992 O   0  0  0  0  0  0  0  0  0  0  0  0
    4.8404   -0.3248   -0.5869 O   0  0  0  0  0  0  0  0  0  0  0  0
   -1.4912    0.8550   -0.2091 C   0  0  1  0  0  0  0  0  0  0  0  0
   -0.0716    0.8795   -0.8153 C   0  0  2  0  0  0  0  0  0  0  0  0
   -2.0070   -0.5677    0.0631 C   0  0  1  0  0  0  0  0  0  0  0  0
    1.0034    0.1975    0.0337 C   0  0  0  0  0  0  0  0  0  0  0  0
   -3.5184   -0.5888    0.2184 C   0  0  0  0  0  0  0  0  0  0  0  0
   -2.1708    1.3854   -0.8879 H   0  0  0  0  0  0  0  0  0  0  0  0
   -0.0935    0.3993   -1.8010 H   0  0  0  0  0  0  0  0  0  0  0  0
   -1.5630   -1.0027    0.9655 H   0  0  0  0  0  0  0  0  0  0  0  0
    1.0845    0.7098    0.9980 H   0  0  0  0  0  0  0  0  0  0  0  0
    0.7426   -0.8488    0.2141 H   0  0  0  0  0  0  0  0  0  0  0  0
   -1.1582    2.4546    0.8593 H   0  0  0  0  0  0  0  0  0  0  0  0
    1.2166    2.2048   -1.4513 H   0  0  0  0  0  0  0  0  0  0  0  0
   -1.9415   -2.3158   -0.7983 H   0  0  0  0  0  0  0  0  0  0  0  0
   -4.9155    0.1296    1.3721 H   0  0  0  0  0  0  0  0  0  0  0  0
    3.6672   -2.5598    0.8780 H   0  0  0  0  0  0  0  0  0  0  0  0
    4.2511    0.1221    2.2252 H   0  0  0  0  0  0  0  0  0  0  0  0
  1  4  1  0  0  0  0
  1  8  1  0  0  0  0
  1  9  1  0  0  0  0
  1 10  2  0  0  0  0
  2 11  1  0  0  0  0
  2 21  1  0  0  0  0
  3 12  1  0  0  0  0
  3 22  1  0  0  0  0
  4 14  1  0  0  0  0
  5 13  1  0  0  0  0
  5 23  1  0  0  0  0
  6 15  1  0  0  0  0
  6 24  1  0  0  0  0
  7 15  2  0  0  0  0
  8 25  1  0  0  0  0
  9 26  1  0  0  0  0
 11 12  1  0  0  0  0
 11 13  1  0  0  0  0
 11 16  1  0  0  0  0
 12 14  1  0  0  0  0
 12 17  1  0  0  0  0
 13 15  1  0  0  0  0
 13 18  1  0  0  0  0
 14 19  1  0  0  0  0
 14 20  1  0  0  0  0
M  END
> <PUBCHEM_COMPOUND_CID>
49799769

> <PUBCHEM_CONFORMER_RMSD>
0.8

> <PUBCHEM_CONFORMER_DIVERSEORDER>
1
55
8
74
41
12
5
27
79
67
72
76
46
73
52
17
4
48
70
60
51
40
78
24
13
26
56
37
43
45
7
20
19
33
23
49
9
53
30
64
44
3
59
6
62
69
18
38
61
35
66
16
77
28
25
14
58
39
36
21
11
63
15
34
68
57
71
31
10
75
50
22
47
65
54
42
29
2
32

> <PUBCHEM_MMFF94_PARTIAL_CHARGES>
21
1 1.51
10 -0.7
11 0.28
12 0.28
13 0.34
14 0.28
15 0.66
2 -0.68
21 0.4
22 0.4
23 0.4
24 0.5
25 0.5
26 0.5
3 -0.68
4 -0.55
5 -0.68
6 -0.65
7 -0.57
8 -0.77
9 -0.77

> <PUBCHEM_EFFECTIVE_ROTOR_COUNT>
6

> <PUBCHEM_PHARMACOPHORE_FEATURES>
13
1 10 acceptor
1 2 acceptor
1 2 donor
1 3 acceptor
1 3 donor
1 5 acceptor
1 5 donor
1 6 acceptor
1 7 acceptor
1 8 acceptor
1 9 acceptor
3 6 7 15 anion
4 1 8 9 10 anion

> <PUBCHEM_HEAVY_ATOM_COUNT>
15

> <PUBCHEM_ATOM_DEF_STEREO_COUNT>
3

> <PUBCHEM_ATOM_UDEF_STEREO_COUNT>
0

> <PUBCHEM_BOND_DEF_STEREO_COUNT>
0

> <PUBCHEM_BOND_UDEF_STEREO_COUNT>
0

> <PUBCHEM_ISOTOPIC_ATOM_COUNT>
0

> <PUBCHEM_COMPONENT_COUNT>
1

> <PUBCHEM_CACTVS_TAUTO_COUNT>
1

> <PUBCHEM_CONFORMER_ID>
02F7E25900000001

> <PUBCHEM_MMFF94_ENERGY>
-10.3044

> <PUBCHEM_FEATURE_SELFOVERLAP>
66.09

> <PUBCHEM_SHAPE_FINGERPRINT>
10618630 7 18114462275571917934
10989021 7 18261393385904392996
114248 4 13984666970533816594
11543360 7 13623541180973616955
12119455 92 14405188335192686261
12251169 10 18202562895283803372
12932764 1 18201424853878883374
14123255 52 10807940349044085835
14252887 29 18408610249227150210
14943859 89 9295288339432857652
15375462 189 18409451384096029130
18186145 218 15285355145875426429
200 152 17022620866891901704
20281407 28 18408317778838496240
20361792 2 18040148539249853924
20645477 70 17895190077537661975
20653085 51 8646484163065436612
20671657 53 16081089264354241084
20711985 327 18411142458559747253
20871998 184 18339640023309425452
22169311 14 17132114658433443074
22485316 2 18335136483795681495
23402539 116 18411978052984195719
23532345 42 18336256916525764832
23559900 14 17489043569029133948
81539 233 12679194794567879301
83771 10 18408602569603884020

> <PUBCHEM_SHAPE_MULTIPOLES>
259.72
8.36
1.59
1.11
2.78
0.29
0.25
-3.45
1.2
-0.07
-0.26
0.01
0.16
-0.5

> <PUBCHEM_SHAPE_SELFOVERLAP>
489.647

> <PUBCHEM_SHAPE_VOLUME>
160.9

> <PUBCHEM_COORDINATE_TYPE>
2
5
10

$$$$
