49866901
  -OEChem-02062310123D

 30 29  0     1  0  0  0  0  0999 V2000
   -3.6610   -0.6283    0.1761 P   0  0  0  0  0  0  0  0  0  0  0  0
    0.8276   -0.4157   -1.5601 O   0  0  0  0  0  0  0  0  0  0  0  0
    2.6819    1.5780   -0.7179 O   0  0  0  0  0  0  0  0  0  0  0  0
   -0.1320    1.6523    1.3191 O   0  0  0  0  0  0  0  0  0  0  0  0
   -2.1339   -0.1553    0.4210 O   0  0  0  0  0  0  0  0  0  0  0  0
    5.4510   -1.6002    0.3807 O   0  0  0  0  0  0  0  0  0  0  0  0
   -4.4879    0.7564    0.2939 O   0  0  0  0  0  0  0  0  0  0  0  0
   -3.7124   -0.9588   -1.4061 O   0  0  0  0  0  0  0  0  0  0  0  0
   -4.1372   -1.7296    1.0776 O   0  0  0  0  0  0  0  0  0  0  0  0
    0.8648    0.0780   -0.2222 C   0  0  1  0  0  0  0  0  0  0  0  0
    2.3091    0.4855    0.1170 C   0  0  1  0  0  0  0  0  0  0  0  0
   -0.1588    1.2189   -0.0442 C   0  0  1  0  0  0  0  0  0  0  0  0
    3.2888   -0.6797   -0.0890 C   0  0  0  0  0  0  0  0  0  0  0  0
   -1.6101    0.8838   -0.3940 C   0  0  0  0  0  0  0  0  0  0  0  0
    4.6101   -0.4852    0.6483 C   0  0  0  0  0  0  0  0  0  0  0  0
    0.5904   -0.7510    0.4430 H   0  0  0  0  0  0  0  0  0  0  0  0
    2.3497    0.8280    1.1575 H   0  0  0  0  0  0  0  0  0  0  0  0
    0.1410    2.0678   -0.6706 H   0  0  0  0  0  0  0  0  0  0  0  0
    3.4998   -0.8198   -1.1569 H   0  0  0  0  0  0  0  0  0  0  0  0
    2.8424   -1.6179    0.2645 H   0  0  0  0  0  0  0  0  0  0  0  0
   -2.2258    1.7766   -0.2395 H   0  0  0  0  0  0  0  0  0  0  0  0
   -1.6884    0.5986   -1.4475 H   0  0  0  0  0  0  0  0  0  0  0  0
    5.1222    0.4206    0.3103 H   0  0  0  0  0  0  0  0  0  0  0  0
    4.4479   -0.4218    1.7289 H   0  0  0  0  0  0  0  0  0  0  0  0
   -0.0237   -0.8677   -1.6848 H   0  0  0  0  0  0  0  0  0  0  0  0
    3.5657    1.8739   -0.4425 H   0  0  0  0  0  0  0  0  0  0  0  0
   -0.7220    2.4215    1.3955 H   0  0  0  0  0  0  0  0  0  0  0  0
    6.2823   -1.4523    0.8631 H   0  0  0  0  0  0  0  0  0  0  0  0
   -5.4681    0.7270    0.2724 H   0  0  0  0  0  0  0  0  0  0  0  0
   -4.5358   -1.3324   -1.7863 H   0  0  0  0  0  0  0  0  0  0  0  0
  1  5  1  0  0  0  0
  1  7  1  0  0  0  0
  1  8  1  0  0  0  0
  1  9  2  0  0  0  0
  2 10  1  0  0  0  0
  2 25  1  0  0  0  0
  3 11  1  0  0  0  0
  3 26  1  0  0  0  0
  4 12  1  0  0  0  0
  4 27  1  0  0  0  0
  5 14  1  0  0  0  0
  6 15  1  0  0  0  0
  6 28  1  0  0  0  0
  7 29  1  0  0  0  0
  8 30  1  0  0  0  0
 10 11  1  0  0  0  0
 10 12  1  0  0  0  0
 10 16  1  0  0  0  0
 11 13  1  0  0  0  0
 11 17  1  0  0  0  0
 12 14  1  0  0  0  0
 12 18  1  0  0  0  0
 13 15  1  0  0  0  0
 13 19  1  0  0  0  0
 13 20  1  0  0  0  0
 14 21  1  0  0  0  0
 14 22  1  0  0  0  0
 15 23  1  0  0  0  0
 15 24  1  0  0  0  0
M  END
> <PUBCHEM_COMPOUND_CID>
49866901

> <PUBCHEM_CONFORMER_RMSD>
0.8

> <PUBCHEM_CONFORMER_DIVERSEORDER>
1
17
89
38
32
112
61
127
94
4
137
135
36
25
50
43
122
20
143
78
58
109
16
71
86
84
52
5
118
124
126
113
14
111
90
55
21
30
125
144
100
42
45
19
105
12
37
98
101
57
142
28
73
76
139
75
128
62
74
8
31
97
2
129
121
23
64
41
123
92
15
96
49
136
120
47
117
119
51
29
80
85
82
18
60
95
67
6
83
10
56
91
59
33
132
65
104
72
106
44
9
81
39
34
11
70
88
108
26
13
48
35
27
115
69
68
7
24
93
3
140
66
141
138
102
22
114
133
134
130
110
46
40
99
131
77
53
103
87
107
54
63
79
116

> <PUBCHEM_MMFF94_PARTIAL_CHARGES>
20
1 1.51
10 0.28
11 0.28
12 0.28
14 0.28
15 0.28
2 -0.68
25 0.4
26 0.4
27 0.4
28 0.4
29 0.5
3 -0.68
30 0.5
4 -0.68
5 -0.55
6 -0.68
7 -0.77
8 -0.77
9 -0.7

> <PUBCHEM_EFFECTIVE_ROTOR_COUNT>
7

> <PUBCHEM_PHARMACOPHORE_FEATURES>
12
1 2 acceptor
1 2 donor
1 3 acceptor
1 3 donor
1 4 acceptor
1 4 donor
1 6 acceptor
1 6 donor
1 7 acceptor
1 8 acceptor
1 9 acceptor
4 1 7 8 9 anion

> <PUBCHEM_HEAVY_ATOM_COUNT>
15

> <PUBCHEM_ATOM_DEF_STEREO_COUNT>
3

> <PUBCHEM_ATOM_UDEF_STEREO_COUNT>
0

> <PUBCHEM_BOND_DEF_STEREO_COUNT>
0

> <PUBCHEM_BOND_UDEF_STEREO_COUNT>
0

> <PUBCHEM_ISOTOPIC_ATOM_COUNT>
0

> <PUBCHEM_COMPONENT_COUNT>
1

> <PUBCHEM_CACTVS_TAUTO_COUNT>
1

> <PUBCHEM_CONFORMER_ID>
02F8E89500000001

> <PUBCHEM_MMFF94_ENERGY>
-4.849

> <PUBCHEM_FEATURE_SELFOVERLAP>
60.943

> <PUBCHEM_SHAPE_FINGERPRINT>
10465860 250 18272087184366552153
11132069 177 17275388707086613573
124424 183 18342735217904734333
13690532 89 18260829276657467418
13705890 14 17604150427501705308
14123255 352 10519713275864890251
14123255 52 10231748985990502056
14251731 8 18187079512464686645
14252887 29 17561372755508530062
14911166 2 13479141181132271060
14943859 89 11095879376247405692
177051 138 18409729552158885832
17834072 33 18040440992948833284
17834072 8 17385998451949883103
18186145 218 15285642131184524773
187816 3 14129062491315031980
193927 3 18335994107387505154
200 152 18408885122712286104
20279233 1 17418097607327739013
20281475 54 18338517564024664999
20645477 70 17967254217327321058
20671657 53 17967257502666150820
20871999 31 14201399361285394142
21501925 9 18412261731716952852
22485316 2 18272930535538860217
22713019 99 16588026797006162840
231179 274 9871751304013554162
23402539 116 18273206478560679557
23402655 69 10881392153959422139
23403322 49 18186238428898051707
23559900 14 18041277755435964312
26918003 58 18411698759787418379
42 15 18272930505827413066
5104073 3 18341057397177712985
633830 44 14634868673630561735
76465 3 18271236231349880767
81539 233 8574444113863892280
90127 26 12031523106518125807

> <PUBCHEM_SHAPE_MULTIPOLES>
265.59
10.12
1.54
1.08
2.36
0.02
-0.17
-5.49
1.54
0.04
0.25
-0.42
-0.06
-0.19

> <PUBCHEM_SHAPE_SELFOVERLAP>
488.735

> <PUBCHEM_SHAPE_VOLUME>
168.4

> <PUBCHEM_COORDINATE_TYPE>
2
5
10

$$$$
