5288577
  -OEChem-02062310123D

 26 25  0     1  0  0  0  0  0999 V2000
    2.9843    0.3928    0.3441 P   0  0  0  0  0  0  0  0  0  0  0  0
   -1.4105    1.0470   -1.2912 O   0  0  0  0  0  0  0  0  0  0  0  0
   -0.5651   -2.0595    0.4897 O   0  0  0  0  0  0  0  0  0  0  0  0
    1.4506   -0.1150    0.3614 O   0  0  0  0  0  0  0  0  0  0  0  0
   -5.0961    0.4276    0.6633 O   0  0  0  0  0  0  0  0  0  0  0  0
    3.0548    1.3625   -0.9481 O   0  0  0  0  0  0  0  0  0  0  0  0
    3.7896   -0.9250   -0.1355 O   0  0  0  0  0  0  0  0  0  0  0  0
    3.4687    0.9992    1.6285 O   0  0  0  0  0  0  0  0  0  0  0  0
   -1.4220    0.1038   -0.2204 C   0  0  2  0  0  0  0  0  0  0  0  0
   -0.5316   -1.1010   -0.5694 C   0  0  1  0  0  0  0  0  0  0  0  0
   -2.8718   -0.3087    0.0833 C   0  0  0  0  0  0  0  0  0  0  0  0
    0.9210   -0.7020   -0.8229 C   0  0  0  0  0  0  0  0  0  0  0  0
   -3.7719    0.8785    0.4172 C   0  0  0  0  0  0  0  0  0  0  0  0
   -1.0356    0.6086    0.6740 H   0  0  0  0  0  0  0  0  0  0  0  0
   -0.9145   -1.5901   -1.4726 H   0  0  0  0  0  0  0  0  0  0  0  0
   -2.9066   -1.0273    0.9108 H   0  0  0  0  0  0  0  0  0  0  0  0
   -3.2984   -0.8247   -0.7868 H   0  0  0  0  0  0  0  0  0  0  0  0
    1.5055   -1.5992   -1.0516 H   0  0  0  0  0  0  0  0  0  0  0  0
    1.0057   -0.0057   -1.6617 H   0  0  0  0  0  0  0  0  0  0  0  0
   -3.8060    1.5923   -0.4116 H   0  0  0  0  0  0  0  0  0  0  0  0
   -3.4096    1.3948    1.3121 H   0  0  0  0  0  0  0  0  0  0  0  0
   -0.5464    1.4917   -1.2849 H   0  0  0  0  0  0  0  0  0  0  0  0
   -0.2081   -1.6301    1.2861 H   0  0  0  0  0  0  0  0  0  0  0  0
   -5.6303    1.2121    0.8752 H   0  0  0  0  0  0  0  0  0  0  0  0
    3.8876    1.8466   -1.1333 H   0  0  0  0  0  0  0  0  0  0  0  0
    4.7703   -0.9062   -0.1405 H   0  0  0  0  0  0  0  0  0  0  0  0
  1  4  1  0  0  0  0
  1  6  1  0  0  0  0
  1  7  1  0  0  0  0
  1  8  2  0  0  0  0
  2  9  1  0  0  0  0
  2 22  1  0  0  0  0
  3 10  1  0  0  0  0
  3 23  1  0  0  0  0
  4 12  1  0  0  0  0
  5 13  1  0  0  0  0
  5 24  1  0  0  0  0
  6 25  1  0  0  0  0
  7 26  1  0  0  0  0
  9 10  1  0  0  0  0
  9 11  1  0  0  0  0
  9 14  1  0  0  0  0
 10 12  1  0  0  0  0
 10 15  1  0  0  0  0
 11 13  1  0  0  0  0
 11 16  1  0  0  0  0
 11 17  1  0  0  0  0
 12 18  1  0  0  0  0
 12 19  1  0  0  0  0
 13 20  1  0  0  0  0
 13 21  1  0  0  0  0
M  END
> <PUBCHEM_COMPOUND_CID>
5288577

> <PUBCHEM_CONFORMER_RMSD>
0.6

> <PUBCHEM_CONFORMER_DIVERSEORDER>
29
109
21
4
38
86
37
92
60
103
45
61
107
24
88
52
105
3
59
67
31
77
44
75
2
68
50
54
102
23
71
30
91
57
56
70
28
78
73
76
49
84
46
15
10
9
42
26
98
33
12
14
101
94
62
100
58
82
99
65
41
63
66
89
1
32
16
79
22
108
106
13
5
35
81
51
40
8
72
6
17
104
90
93
36
19
74
18
39
64
83
27
34
87
25
95
47
7
48
80
69
43
85
11
97
53
20
55
96

> <PUBCHEM_MMFF94_PARTIAL_CHARGES>
17
1 1.51
10 0.28
12 0.28
13 0.28
2 -0.68
22 0.4
23 0.4
24 0.4
25 0.5
26 0.5
3 -0.68
4 -0.55
5 -0.68
6 -0.77
7 -0.77
8 -0.7
9 0.28

> <PUBCHEM_EFFECTIVE_ROTOR_COUNT>
6

> <PUBCHEM_PHARMACOPHORE_FEATURES>
10
1 2 acceptor
1 2 donor
1 3 acceptor
1 3 donor
1 5 acceptor
1 5 donor
1 6 acceptor
1 7 acceptor
1 8 acceptor
4 1 6 7 8 anion

> <PUBCHEM_HEAVY_ATOM_COUNT>
13

> <PUBCHEM_ATOM_DEF_STEREO_COUNT>
2

> <PUBCHEM_ATOM_UDEF_STEREO_COUNT>
0

> <PUBCHEM_BOND_DEF_STEREO_COUNT>
0

> <PUBCHEM_BOND_UDEF_STEREO_COUNT>
0

> <PUBCHEM_ISOTOPIC_ATOM_COUNT>
0

> <PUBCHEM_COMPONENT_COUNT>
1

> <PUBCHEM_CACTVS_TAUTO_COUNT>
1

> <PUBCHEM_CONFORMER_ID>
0050B2810000001D

> <PUBCHEM_MMFF94_ENERGY>
-12.0164

> <PUBCHEM_FEATURE_SELFOVERLAP>
50.786

> <PUBCHEM_SHAPE_FINGERPRINT>
11031198 65 17489874821030642878
11132069 177 18408598180300164871
122479 349 18272649103401000899
12932764 1 16660631995190282406
13549 16 13039192485398089937
14252887 29 12107792895321621932
15775835 57 18342173375409134826
170605 34 18060139799895250383
177051 138 13767922412171765768
17846911 113 18410570691201867401
18186145 218 18343015571335662382
20279233 1 10952044572289890468
20281407 28 11674874481061544126
20653085 51 16917068901270511158
20711983 171 18340772645167068886
21028194 46 18343863303517167206
21119208 17 15123792876866475468
212847 35 18273500061287801872
21293036 1 12031783652372501535
21524375 3 18272654510965487911
22959321 60 18271810163524005187
23402539 116 16702291343751886604
23500284 214 18201994482047546840
3248919 1 18189883396265396654
449060 50 18202568358983214341
8030462 33 12031519838512204702
81228 2 17975681007117655578

> <PUBCHEM_SHAPE_MULTIPOLES>
230.3
8.02
1.41
1.07
3.3
0.35
-0.05
-3.09
2.06
-0.33
0.1
-0.47
-0.28
0.18

> <PUBCHEM_SHAPE_SELFOVERLAP>
418.549

> <PUBCHEM_SHAPE_VOLUME>
147.4

> <PUBCHEM_COORDINATE_TYPE>
2
5
10

$$$$
