53393537
  -OEChem-02062310123D

 25 24  0     1  0  0  0  0  0999 V2000
   -3.3896   -0.1895   -0.1909 P   0  0  0  0  0  0  0  0  0  0  0  0
    0.6339   -1.3225    0.8478 O   0  0  0  0  0  0  0  0  0  0  0  0
    1.4218    2.1045   -0.1693 O   0  0  0  0  0  0  0  0  0  0  0  0
   -1.8135   -0.5407   -0.2446 O   0  0  0  0  0  0  0  0  0  0  0  0
    3.2082   -0.7640    1.2092 O   0  0  0  0  0  0  0  0  0  0  0  0
    3.6903   -1.0877   -1.4064 O   0  0  0  0  0  0  0  0  0  0  0  0
   -3.4930    1.2362   -0.9471 O   0  0  0  0  0  0  0  0  0  0  0  0
   -3.6147    0.1966    1.3632 O   0  0  0  0  0  0  0  0  0  0  0  0
   -4.2990   -1.2617   -0.7158 O   0  0  0  0  0  0  0  0  0  0  0  0
    1.5931    0.8859    0.5558 C   0  0  1  0  0  0  0  0  0  0  0  0
    0.5302   -0.1197    0.0869 C   0  0  2  0  0  0  0  0  0  0  0  0
    3.0392    0.3936    0.4035 C   0  0  2  0  0  0  0  0  0  0  0  0
   -0.8894    0.4301    0.2370 C   0  0  0  0  0  0  0  0  0  0  0  0
    3.3826    0.0389   -1.0294 C   0  0  0  0  0  0  0  0  0  0  0  0
    0.6875   -0.3836   -0.9657 H   0  0  0  0  0  0  0  0  0  0  0  0
    1.4171    1.0977    1.6186 H   0  0  0  0  0  0  0  0  0  0  0  0
    3.7449    1.1644    0.7321 H   0  0  0  0  0  0  0  0  0  0  0  0
   -1.0131    1.3553   -0.3330 H   0  0  0  0  0  0  0  0  0  0  0  0
   -1.1055    0.6236    1.2927 H   0  0  0  0  0  0  0  0  0  0  0  0
   -0.0589   -1.9278    0.5325 H   0  0  0  0  0  0  0  0  0  0  0  0
    2.0735    2.7411    0.1706 H   0  0  0  0  0  0  0  0  0  0  0  0
    3.3529    0.8790   -1.7445 H   0  0  0  0  0  0  0  0  0  0  0  0
    4.1530   -0.9941    1.1955 H   0  0  0  0  0  0  0  0  0  0  0  0
   -4.3783    1.6318   -1.0951 H   0  0  0  0  0  0  0  0  0  0  0  0
   -4.5264    0.3660    1.6829 H   0  0  0  0  0  0  0  0  0  0  0  0
  1  4  1  0  0  0  0
  1  7  1  0  0  0  0
  1  8  1  0  0  0  0
  1  9  2  0  0  0  0
  2 11  1  0  0  0  0
  2 20  1  0  0  0  0
  3 10  1  0  0  0  0
  3 21  1  0  0  0  0
  4 13  1  0  0  0  0
  5 12  1  0  0  0  0
  5 23  1  0  0  0  0
  6 14  2  0  0  0  0
  7 24  1  0  0  0  0
  8 25  1  0  0  0  0
 10 11  1  0  0  0  0
 10 12  1  0  0  0  0
 10 16  1  0  0  0  0
 11 13  1  0  0  0  0
 11 15  1  0  0  0  0
 12 14  1  0  0  0  0
 12 17  1  0  0  0  0
 13 18  1  0  0  0  0
 13 19  1  0  0  0  0
 14 22  1  0  0  0  0
M  END
> <PUBCHEM_COMPOUND_CID>
53393537

> <PUBCHEM_CONFORMER_RMSD>
0.6

> <PUBCHEM_CONFORMER_DIVERSEORDER>
1
147
60
37
165
228
93
20
170
22
118
112
201
218
149
172
86
29
17
169
231
80
88
146
195
224
156
115
152
111
124
164
57
219
59
43
62
104
85
120
76
197
82
221
90
113
49
99
66
151
44
183
61
192
177
19
163
225
239
87
73
158
5
136
110
148
40
103
36
131
89
64
28
67
155
135
196
167
26
244
130
173
205
186
162
21
56
203
157
128
181
227
178
106
55
238
138
34
188
58
107
246
102
204
78
46
189
140
117
114
185
27
9
220
63
194
210
229
160
242
96
121
226
166
69
141
108
97
72
51
202
68
18
52
223
125
180
174
6
211
234
232
187
33
143
15
35
74
193
109
41
142
48
132
154
200
116
145
47
12
77
208
213
119
23
71
79
39
134
65
98
95
133
122
38
123
137
25
8
190
168
32
184
175
24
105
216
75
182
127
4
171
11
179
126
214
199
7
240
31
207
84
42
222
144
45
243
10
139
54
245
129
14
217
191
209
198
100
92
53
215
237
3
241
70
230
50
236
212
16
150
94
159
83
153
206
161
233
81
2
235
13
91
30
176
101

> <PUBCHEM_MMFF94_PARTIAL_CHARGES>
20
1 1.51
10 0.28
11 0.28
12 0.34
13 0.28
14 0.45
2 -0.68
20 0.4
21 0.4
22 0.06
23 0.4
24 0.5
25 0.5
3 -0.68
4 -0.55
5 -0.68
6 -0.57
7 -0.77
8 -0.77
9 -0.7

> <PUBCHEM_EFFECTIVE_ROTOR_COUNT>
6

> <PUBCHEM_PHARMACOPHORE_FEATURES>
11
1 2 acceptor
1 2 donor
1 3 acceptor
1 3 donor
1 5 acceptor
1 5 donor
1 6 acceptor
1 7 acceptor
1 8 acceptor
1 9 acceptor
4 1 7 8 9 anion

> <PUBCHEM_HEAVY_ATOM_COUNT>
14

> <PUBCHEM_ATOM_DEF_STEREO_COUNT>
3

> <PUBCHEM_ATOM_UDEF_STEREO_COUNT>
0

> <PUBCHEM_BOND_DEF_STEREO_COUNT>
0

> <PUBCHEM_BOND_UDEF_STEREO_COUNT>
0

> <PUBCHEM_ISOTOPIC_ATOM_COUNT>
0

> <PUBCHEM_COMPONENT_COUNT>
1

> <PUBCHEM_CACTVS_TAUTO_COUNT>
8

> <PUBCHEM_CONFORMER_ID>
032EB88100000001

> <PUBCHEM_MMFF94_ENERGY>
-12.237

> <PUBCHEM_FEATURE_SELFOVERLAP>
55.886

> <PUBCHEM_SHAPE_FINGERPRINT>
10751810 167 17967255269214623781
11543360 7 15357704110230743321
12916754 54 18271245032001308917
12932764 1 18260544541489264785
13705890 14 17846780719534199086
14144814 61 18408879637970412451
14252887 29 18202844362002876034
15477762 27 18131354141560610932
17041 50 18411419505430560876
177051 138 17703791444023260311
18186145 218 18411983576348983641
190213 19 17847057796459058809
19422 9 17917719040894774009
1986462 14 18343021090753655687
20233049 118 17967529069464656100
20339313 130 18341620342678040608
20645477 70 17704079486406101582
22485316 2 15626219121994395559
23402539 116 18410565181138452988
23402655 69 18334853892344011677
3248919 1 17775565372777744185
42 15 16773803592822962975
449060 62 9223237368508689712
4990 188 18412546509112142174

> <PUBCHEM_SHAPE_MULTIPOLES>
245.01
8.15
1.35
1.15
4.45
0.28
-0.03
-1.57
1.48
-0.19
0.19
-0.34
-0.15
0.13

> <PUBCHEM_SHAPE_SELFOVERLAP>
457.056

> <PUBCHEM_SHAPE_VOLUME>
153.2

> <PUBCHEM_COORDINATE_TYPE>
2
5
10

$$$$
