53827506
  -OEChem-02062310123D

 31 30  0     1  0  0  0  0  0999 V2000
   -4.1242    0.0711    0.0808 P   0  0  0  0  0  0  0  0  0  0  0  0
    0.8736   -1.4848    0.8371 O   0  0  0  0  0  0  0  0  0  0  0  0
    2.1090    1.4681   -0.9165 O   0  0  0  0  0  0  0  0  0  0  0  0
   -0.6620    0.8973    1.0752 O   0  0  0  0  0  0  0  0  0  0  0  0
    3.6401   -0.9200   -1.1158 O   0  0  0  0  0  0  0  0  0  0  0  0
   -2.7942    0.0964   -0.8349 O   0  0  0  0  0  0  0  0  0  0  0  0
    5.8225   -0.1333    0.4145 O   0  0  0  0  0  0  0  0  0  0  0  0
   -4.6544   -1.4511   -0.0503 O   0  0  0  0  0  0  0  0  0  0  0  0
   -5.1819    0.9112   -0.8083 O   0  0  0  0  0  0  0  0  0  0  0  0
   -3.9408    0.5680    1.4850 O   0  0  0  0  0  0  0  0  0  0  0  0
    0.8893   -0.4698   -0.1659 C   0  0  2  0  0  0  0  0  0  0  0  0
    2.0826    0.4641    0.0976 C   0  0  1  0  0  0  0  0  0  0  0  0
   -0.4709    0.2560   -0.1922 C   0  0  1  0  0  0  0  0  0  0  0  0
    3.4411   -0.2639    0.1430 C   0  0  2  0  0  0  0  0  0  0  0  0
   -1.6684   -0.6680   -0.4096 C   0  0  0  0  0  0  0  0  0  0  0  0
    4.6386    0.6586    0.3601 C   0  0  0  0  0  0  0  0  0  0  0  0
    1.0181   -0.9590   -1.1391 H   0  0  0  0  0  0  0  0  0  0  0  0
    1.9488    0.9636    1.0648 H   0  0  0  0  0  0  0  0  0  0  0  0
   -0.4742    1.0393   -0.9592 H   0  0  0  0  0  0  0  0  0  0  0  0
    3.4451   -1.0408    0.9165 H   0  0  0  0  0  0  0  0  0  0  0  0
   -1.9143   -1.2243    0.5018 H   0  0  0  0  0  0  0  0  0  0  0  0
   -1.4582   -1.3857   -1.2086 H   0  0  0  0  0  0  0  0  0  0  0  0
    4.5429    1.2125    1.2988 H   0  0  0  0  0  0  0  0  0  0  0  0
    4.7605    1.3607   -0.4705 H   0  0  0  0  0  0  0  0  0  0  0  0
    0.2430   -2.1695    0.5578 H   0  0  0  0  0  0  0  0  0  0  0  0
    2.6914    2.1835   -0.6105 H   0  0  0  0  0  0  0  0  0  0  0  0
   -0.0995    1.6898    1.0922 H   0  0  0  0  0  0  0  0  0  0  0  0
    3.0681   -1.7057   -1.1322 H   0  0  0  0  0  0  0  0  0  0  0  0
    6.5660    0.4766    0.5582 H   0  0  0  0  0  0  0  0  0  0  0  0
   -5.4329   -1.7294    0.4777 H   0  0  0  0  0  0  0  0  0  0  0  0
   -6.0601    1.1234   -0.4261 H   0  0  0  0  0  0  0  0  0  0  0  0
  1  6  1  0  0  0  0
  1  8  1  0  0  0  0
  1  9  1  0  0  0  0
  1 10  2  0  0  0  0
  2 11  1  0  0  0  0
  2 25  1  0  0  0  0
  3 12  1  0  0  0  0
  3 26  1  0  0  0  0
  4 13  1  0  0  0  0
  4 27  1  0  0  0  0
  5 14  1  0  0  0  0
  5 28  1  0  0  0  0
  6 15  1  0  0  0  0
  7 16  1  0  0  0  0
  7 29  1  0  0  0  0
  8 30  1  0  0  0  0
  9 31  1  0  0  0  0
 11 12  1  0  0  0  0
 11 13  1  0  0  0  0
 11 17  1  0  0  0  0
 12 14  1  0  0  0  0
 12 18  1  0  0  0  0
 13 15  1  0  0  0  0
 13 19  1  0  0  0  0
 14 16  1  0  0  0  0
 14 20  1  0  0  0  0
 15 21  1  0  0  0  0
 15 22  1  0  0  0  0
 16 23  1  0  0  0  0
 16 24  1  0  0  0  0
M  END
> <PUBCHEM_COMPOUND_CID>
53827506

> <PUBCHEM_CONFORMER_RMSD>
0.8

> <PUBCHEM_CONFORMER_DIVERSEORDER>
5
32
114
123
92
100
111
98
94
19
2
75
16
24
109
89
70
10
27
83
117
28
64
8
40
14
76
48
30
107
93
108
25
121
97
105
21
78
53
31
124
1
56
50
45
6
65
71
12
120
87
26
110
99
57
34
51
33
17
67
46
104
13
3
102
38
90
69
66
115
59
82
106
86
80
88
77
44
7
116
103
15
54
60
23
20
85
49
9
112
74
118
41
29
62
61
119
58
43
4
96
11
72
91
37
95
47
35
22
101
63
42
73
18
39
52
122
81
113
55
36
84
79
68

> <PUBCHEM_MMFF94_PARTIAL_CHARGES>
23
1 1.51
10 -0.7
11 0.28
12 0.28
13 0.28
14 0.28
15 0.28
16 0.28
2 -0.68
25 0.4
26 0.4
27 0.4
28 0.4
29 0.4
3 -0.68
30 0.5
31 0.5
4 -0.68
5 -0.68
6 -0.55
7 -0.68
8 -0.77
9 -0.77

> <PUBCHEM_EFFECTIVE_ROTOR_COUNT>
7

> <PUBCHEM_PHARMACOPHORE_FEATURES>
14
1 10 acceptor
1 2 acceptor
1 2 donor
1 3 acceptor
1 3 donor
1 4 acceptor
1 4 donor
1 5 acceptor
1 5 donor
1 7 acceptor
1 7 donor
1 8 acceptor
1 9 acceptor
4 1 8 9 10 anion

> <PUBCHEM_HEAVY_ATOM_COUNT>
16

> <PUBCHEM_ATOM_DEF_STEREO_COUNT>
4

> <PUBCHEM_ATOM_UDEF_STEREO_COUNT>
0

> <PUBCHEM_BOND_DEF_STEREO_COUNT>
0

> <PUBCHEM_BOND_UDEF_STEREO_COUNT>
0

> <PUBCHEM_ISOTOPIC_ATOM_COUNT>
0

> <PUBCHEM_COMPONENT_COUNT>
1

> <PUBCHEM_CACTVS_TAUTO_COUNT>
1

> <PUBCHEM_CONFORMER_ID>
033557B200000005

> <PUBCHEM_MMFF94_ENERGY>
2.4101

> <PUBCHEM_FEATURE_SELFOVERLAP>
71.11

> <PUBCHEM_SHAPE_FINGERPRINT>
11287383 113 18342738554761871066
11401426 45 18272085006701847892
12236239 1 18343017796054803492
12815109 37 17346876758580982236
13533116 47 14620803661644823758
13675066 3 18272651268143587279
14123238 8 15841550777623292405
14251718 22 14261344778017838693
17834072 33 17489580212159959437
17834076 25 17561081419429156964
18186145 218 18335138704383405391
190213 19 18273497875259945007
200 152 18259701207607478545
20645477 70 17203052881210387102
21709351 56 18040989670314447711
22485316 2 16630524033505030886
23402539 116 16370720435468005295
23402655 69 18335698313116060085
23557571 272 16200160876290250696
23559900 14 17917989521335384354
26918003 58 18412824698391216602
2916195 48 18339352071891518232
42788 4 18408600374712000444
4990 188 18410578383208849822
542803 24 17632298981935179304

> <PUBCHEM_SHAPE_MULTIPOLES>
280.3
11.63
1.16
1
0.39
0.12
0.08
-0.46
0.2
0.2
-0.01
0.35
-0.11
0

> <PUBCHEM_SHAPE_SELFOVERLAP>
521.927

> <PUBCHEM_SHAPE_VOLUME>
175.9

> <PUBCHEM_COORDINATE_TYPE>
2
5
10

$$$$
