53917847
  -OEChem-02062310113D

 30 29  0     1  0  0  0  0  0999 V2000
   -2.0531    1.6279    0.0395 P   0  0  0  0  0  0  0  0  0  0  0  0
   -0.8115    0.6958    0.4759 O   0  0  0  0  0  0  0  0  0  0  0  0
    1.2388   -1.1336    1.1045 O   0  0  0  0  0  0  0  0  0  0  0  0
    2.1525    1.8055   -0.9062 O   0  0  0  0  0  0  0  0  0  0  0  0
   -0.3601   -1.9601   -1.9850 O   0  0  0  0  0  0  0  0  0  0  0  0
    4.3233    0.0691   -0.1675 O   0  0  0  0  0  0  0  0  0  0  0  0
   -1.6820   -1.6925    1.3526 O   0  0  0  0  0  0  0  0  0  0  0  0
   -1.3659    2.8081   -0.8264 O   0  0  0  0  0  0  0  0  0  0  0  0
   -2.4428    2.3628    1.4263 O   0  0  0  0  0  0  0  0  0  0  0  0
   -0.6249   -3.3908    0.2813 O   0  0  0  0  0  0  0  0  0  0  0  0
   -3.1842    0.9105   -0.6374 O   0  0  0  0  0  0  0  0  0  0  0  0
   -0.1191   -0.0253   -0.5474 C   0  0  1  0  0  0  0  0  0  0  0  0
    1.3172   -0.3041   -0.0504 C   0  0  1  0  0  0  0  0  0  0  0  0
    2.0973    0.9916    0.2652 C   0  0  1  0  0  0  0  0  0  0  0  0
   -0.9465   -1.2806   -0.8835 C   0  0  2  0  0  0  0  0  0  0  0  0
    3.5216    0.7623    0.7785 C   0  0  0  0  0  0  0  0  0  0  0  0
   -1.0606   -2.2467    0.2803 C   0  0  0  0  0  0  0  0  0  0  0  0
   -0.0550    0.5955   -1.4494 H   0  0  0  0  0  0  0  0  0  0  0  0
    1.8495   -0.8584   -0.8322 H   0  0  0  0  0  0  0  0  0  0  0  0
    1.5595    1.5558    1.0368 H   0  0  0  0  0  0  0  0  0  0  0  0
   -1.9643   -1.0359   -1.1891 H   0  0  0  0  0  0  0  0  0  0  0  0
    3.5171    0.1964    1.7151 H   0  0  0  0  0  0  0  0  0  0  0  0
    4.0059    1.7273    0.9644 H   0  0  0  0  0  0  0  0  0  0  0  0
    2.1288   -1.4826    1.2795 H   0  0  0  0  0  0  0  0  0  0  0  0
    2.6022    2.6340   -0.6679 H   0  0  0  0  0  0  0  0  0  0  0  0
    0.5177   -2.2799   -1.7180 H   0  0  0  0  0  0  0  0  0  0  0  0
    5.2073   -0.0308    0.2252 H   0  0  0  0  0  0  0  0  0  0  0  0
   -1.7391   -2.3181    2.1059 H   0  0  0  0  0  0  0  0  0  0  0  0
   -1.9399    3.4791   -1.2536 H   0  0  0  0  0  0  0  0  0  0  0  0
   -3.2438    2.9283    1.4548 H   0  0  0  0  0  0  0  0  0  0  0  0
  1  2  1  0  0  0  0
  1  8  1  0  0  0  0
  1  9  1  0  0  0  0
  1 11  2  0  0  0  0
  2 12  1  0  0  0  0
  3 13  1  0  0  0  0
  3 24  1  0  0  0  0
  4 14  1  0  0  0  0
  4 25  1  0  0  0  0
  5 15  1  0  0  0  0
  5 26  1  0  0  0  0
  6 16  1  0  0  0  0
  6 27  1  0  0  0  0
  7 17  1  0  0  0  0
  7 28  1  0  0  0  0
  8 29  1  0  0  0  0
  9 30  1  0  0  0  0
 10 17  2  0  0  0  0
 12 13  1  0  0  0  0
 12 15  1  0  0  0  0
 12 18  1  0  0  0  0
 13 14  1  0  0  0  0
 13 19  1  0  0  0  0
 14 16  1  0  0  0  0
 14 20  1  0  0  0  0
 15 17  1  0  0  0  0
 15 21  1  0  0  0  0
 16 22  1  0  0  0  0
 16 23  1  0  0  0  0
M  END
> <PUBCHEM_COMPOUND_CID>
53917847

> <PUBCHEM_CONFORMER_RMSD>
0.8

> <PUBCHEM_CONFORMER_DIVERSEORDER>
1
40
46
48
8
56
77
58
29
23
57
49
73
61
10
41
65
24
71
42
32
38
70
20
22
4
60
69
55
15
52
31
59
7
34
64
54
72
25
45
14
75
17
50
68
76
3
39
74
9
13
35
30
33
28
67
21
37
36
16
12
66
6
63
18
26
62
43
53
47
51
2
19
27
44
11
5

> <PUBCHEM_MMFF94_PARTIAL_CHARGES>
24
1 1.51
10 -0.57
11 -0.7
12 0.28
13 0.28
14 0.28
15 0.34
16 0.28
17 0.66
2 -0.55
24 0.4
25 0.4
26 0.4
27 0.4
28 0.5
29 0.5
3 -0.68
30 0.5
4 -0.68
5 -0.68
6 -0.68
7 -0.65
8 -0.77
9 -0.77

> <PUBCHEM_EFFECTIVE_ROTOR_COUNT>
7

> <PUBCHEM_PHARMACOPHORE_FEATURES>
15
1 10 acceptor
1 11 acceptor
1 3 acceptor
1 3 donor
1 4 acceptor
1 4 donor
1 5 acceptor
1 5 donor
1 6 acceptor
1 6 donor
1 7 acceptor
1 8 acceptor
1 9 acceptor
3 7 10 17 anion
4 1 8 9 11 anion

> <PUBCHEM_HEAVY_ATOM_COUNT>
17

> <PUBCHEM_ATOM_DEF_STEREO_COUNT>
4

> <PUBCHEM_ATOM_UDEF_STEREO_COUNT>
0

> <PUBCHEM_BOND_DEF_STEREO_COUNT>
0

> <PUBCHEM_BOND_UDEF_STEREO_COUNT>
0

> <PUBCHEM_ISOTOPIC_ATOM_COUNT>
0

> <PUBCHEM_COMPONENT_COUNT>
1

> <PUBCHEM_CACTVS_TAUTO_COUNT>
1

> <PUBCHEM_CONFORMER_ID>
0336B89700000001

> <PUBCHEM_MMFF94_ENERGY>
-0.4

> <PUBCHEM_FEATURE_SELFOVERLAP>
76.239

> <PUBCHEM_SHAPE_FINGERPRINT>
1 1 18051972519775401525
100427 49 17404573867281805605
10922049 32 18342461383126048207
12932764 1 17629768022617459056
13380535 76 18341608192257433478
14817 1 14071285659146748483
15309172 13 18337392617231888097
15490181 8 18269565952769767141
15775835 57 18341044099711290737
15906896 17 18341887532582903895
16945 1 18267600171839367122
20510252 161 18193553600116579842
21524375 3 18270956834731081397
21731228 192 18341336578362403121
23402539 116 18341884247243977111
23419403 2 17338487390213944159
23557571 272 18055631974236552740
23559900 14 18272651235007883840
2748010 2 18265634133543466143
305870 269 18122060901383654840
7364860 26 17763458414074063181
81228 2 18197205056520340321
81539 233 18047180861345281901

> <PUBCHEM_SHAPE_MULTIPOLES>
295.01
4.68
3.23
1.25
4.84
0.83
0.12
-2.4
-0.51
-2.52
-0.08
-0.37
0.22
-0.18

> <PUBCHEM_SHAPE_SELFOVERLAP>
563.92

> <PUBCHEM_SHAPE_VOLUME>
180.5

> <PUBCHEM_COORDINATE_TYPE>
2
5
10

$$$$
