53931396
  -OEChem-02062310113D

 29 28  0     1  0  0  0  0  0999 V2000
   -4.4391   -0.0401    0.0718 P   0  0  0  0  0  0  0  0  0  0  0  0
    0.6557    1.6880   -0.0102 O   0  0  0  0  0  0  0  0  0  0  0  0
   -0.4712   -1.7943    0.0583 O   0  0  0  0  0  0  0  0  0  0  0  0
   -2.9377   -0.4804    0.4750 O   0  0  0  0  0  0  0  0  0  0  0  0
    3.3344    1.7060   -0.0579 O   0  0  0  0  0  0  0  0  0  0  0  0
    4.6328   -1.6330   -0.3875 O   0  0  0  0  0  0  0  0  0  0  0  0
    5.4506    0.2055    0.6618 O   0  0  0  0  0  0  0  0  0  0  0  0
   -4.4667   -0.1932   -1.5379 O   0  0  0  0  0  0  0  0  0  0  0  0
   -4.4111    1.5616    0.2925 O   0  0  0  0  0  0  0  0  0  0  0  0
   -5.5325   -0.7617    0.8038 O   0  0  0  0  0  0  0  0  0  0  0  0
    0.6904    0.2929   -0.3044 C   0  0  2  0  0  0  0  0  0  0  0  0
   -0.5242   -0.3956    0.3432 C   0  0  1  0  0  0  0  0  0  0  0  0
    2.0249   -0.3136    0.1735 C   0  0  0  0  0  0  0  0  0  0  0  0
    3.2804    0.3368   -0.4249 C   0  0  2  0  0  0  0  0  0  0  0  0
   -1.8480    0.1619   -0.1789 C   0  0  0  0  0  0  0  0  0  0  0  0
    4.5615   -0.3407    0.0217 C   0  0  0  0  0  0  0  0  0  0  0  0
    0.6295    0.1763   -1.3939 H   0  0  0  0  0  0  0  0  0  0  0  0
   -0.4902   -0.2790    1.4332 H   0  0  0  0  0  0  0  0  0  0  0  0
    2.0776   -0.2010    1.2651 H   0  0  0  0  0  0  0  0  0  0  0  0
    2.0379   -1.3888   -0.0387 H   0  0  0  0  0  0  0  0  0  0  0  0
   -1.9084    1.2393    0.0007 H   0  0  0  0  0  0  0  0  0  0  0  0
   -1.9315   -0.0268   -1.2543 H   0  0  0  0  0  0  0  0  0  0  0  0
    3.2403    0.2919   -1.5194 H   0  0  0  0  0  0  0  0  0  0  0  0
    1.3427    2.1203   -0.5448 H   0  0  0  0  0  0  0  0  0  0  0  0
   -1.2535   -2.2038    0.4659 H   0  0  0  0  0  0  0  0  0  0  0  0
    4.0636    2.1148   -0.5549 H   0  0  0  0  0  0  0  0  0  0  0  0
    5.4681   -2.0613   -0.1028 H   0  0  0  0  0  0  0  0  0  0  0  0
   -5.3093   -0.0365   -2.0151 H   0  0  0  0  0  0  0  0  0  0  0  0
   -5.2460    2.0681    0.2001 H   0  0  0  0  0  0  0  0  0  0  0  0
  1  4  1  0  0  0  0
  1  8  1  0  0  0  0
  1  9  1  0  0  0  0
  1 10  2  0  0  0  0
  2 11  1  0  0  0  0
  2 24  1  0  0  0  0
  3 12  1  0  0  0  0
  3 25  1  0  0  0  0
  4 15  1  0  0  0  0
  5 14  1  0  0  0  0
  5 26  1  0  0  0  0
  6 16  1  0  0  0  0
  6 27  1  0  0  0  0
  7 16  2  0  0  0  0
  8 28  1  0  0  0  0
  9 29  1  0  0  0  0
 11 12  1  0  0  0  0
 11 13  1  0  0  0  0
 11 17  1  0  0  0  0
 12 15  1  0  0  0  0
 12 18  1  0  0  0  0
 13 14  1  0  0  0  0
 13 19  1  0  0  0  0
 13 20  1  0  0  0  0
 14 16  1  0  0  0  0
 14 23  1  0  0  0  0
 15 21  1  0  0  0  0
 15 22  1  0  0  0  0
M  END
> <PUBCHEM_COMPOUND_CID>
53931396

> <PUBCHEM_CONFORMER_RMSD>
0.8

> <PUBCHEM_CONFORMER_DIVERSEORDER>
2
24
122
112
116
101
10
69
70
29
35
96
44
110
127
130
76
32
42
5
124
132
83
34
111
133
28
31
119
33
123
114
61
120
134
78
14
8
107
99
40
109
129
3
20
95
89
126
87
56
128
115
125
113
48
97
11
93
43
50
121
9
98
73
72
16
27
18
41
4
36
104
53
63
136
23
91
52
74
105
57
45
67
106
80
51
55
75
39
60
103
65
13
77
7
131
1
84
71
15
30
85
64
68
135
86
62
6
22
94
47
37
92
21
19
82
102
49
46
118
90
108
59
26
38
17
54
58
79
66
12
117
81
88
25
100

> <PUBCHEM_MMFF94_PARTIAL_CHARGES>
21
1 1.51
10 -0.7
11 0.28
12 0.28
14 0.34
15 0.28
16 0.66
2 -0.68
24 0.4
25 0.4
26 0.4
27 0.5
28 0.5
29 0.5
3 -0.68
4 -0.55
5 -0.68
6 -0.65
7 -0.57
8 -0.77
9 -0.77

> <PUBCHEM_EFFECTIVE_ROTOR_COUNT>
7

> <PUBCHEM_PHARMACOPHORE_FEATURES>
13
1 10 acceptor
1 2 acceptor
1 2 donor
1 3 acceptor
1 3 donor
1 5 acceptor
1 5 donor
1 6 acceptor
1 7 acceptor
1 8 acceptor
1 9 acceptor
3 6 7 16 anion
4 1 8 9 10 anion

> <PUBCHEM_HEAVY_ATOM_COUNT>
16

> <PUBCHEM_ATOM_DEF_STEREO_COUNT>
3

> <PUBCHEM_ATOM_UDEF_STEREO_COUNT>
0

> <PUBCHEM_BOND_DEF_STEREO_COUNT>
0

> <PUBCHEM_BOND_UDEF_STEREO_COUNT>
0

> <PUBCHEM_ISOTOPIC_ATOM_COUNT>
0

> <PUBCHEM_COMPONENT_COUNT>
1

> <PUBCHEM_CACTVS_TAUTO_COUNT>
1

> <PUBCHEM_CONFORMER_ID>
0336ED8400000002

> <PUBCHEM_MMFF94_ENERGY>
-8.8188

> <PUBCHEM_FEATURE_SELFOVERLAP>
66.095

> <PUBCHEM_SHAPE_FINGERPRINT>
11401426 45 18273493472580901901
13533116 47 17418097577506074150
13675066 3 18113621230643657546
13690532 89 18410295813009898402
13862211 1 18409162212322022843
14123238 8 13183019618264478738
1420 363 17967821561158971291
14251731 8 17675923192320071414
17834072 33 18272088335269840901
17834072 8 18113617876284917958
18186145 218 17894346691752271060
200 152 18202563968967559705
20645477 70 18409735053986021062
220451 1 17418379103346821526
23402539 116 18131627872516289917
23559900 14 18340487876356805760
265663 24 17846497036743909799
351380 180 18342457036540250752
366044 4 18408886243461815235
42788 4 18410856559871885242
5374978 207 18341609326677458488
542803 24 13262398851620850446
69090 78 18342736334190179494
90127 26 16008752424354185405

> <PUBCHEM_SHAPE_MULTIPOLES>
280.3
12.64
1.39
0.8
2.28
0.16
0.16
-0.87
-0.63
-0.46
-0.02
0.59
-0.05
0.19

> <PUBCHEM_SHAPE_SELFOVERLAP>
526.675

> <PUBCHEM_SHAPE_VOLUME>
174

> <PUBCHEM_COORDINATE_TYPE>
2
5
10

$$$$
