6326748
  -OEChem-02062310113D

 30 29  0     1  0  0  0  0  0999 V2000
   -3.6082    0.4729    0.1204 P   0  0  0  0  0  0  0  0  0  0  0  0
   -0.1595   -0.5583   -2.0096 O   0  0  0  0  0  0  0  0  0  0  0  0
    1.9060    1.2393   -1.6556 O   0  0  0  0  0  0  0  0  0  0  0  0
   -0.5204   -2.6380   -0.0890 O   0  0  0  0  0  0  0  0  0  0  0  0
   -2.2640   -0.3549   -0.2309 O   0  0  0  0  0  0  0  0  0  0  0  0
    2.6611    2.0849    0.8866 O   0  0  0  0  0  0  0  0  0  0  0  0
    3.2248   -1.3748    1.0372 O   0  0  0  0  0  0  0  0  0  0  0  0
    4.4413    0.1814   -0.0798 O   0  0  0  0  0  0  0  0  0  0  0  0
   -3.0548    1.8611    0.7382 O   0  0  0  0  0  0  0  0  0  0  0  0
   -4.1816   -0.3079    1.4153 O   0  0  0  0  0  0  0  0  0  0  0  0
   -4.5799    0.6177   -1.0141 O   0  0  0  0  0  0  0  0  0  0  0  0
    0.6819   -0.6812   -0.8673 C   0  0  1  0  0  0  0  0  0  0  0  0
    1.2242    0.7208   -0.5098 C   0  0  1  0  0  0  0  0  0  0  0  0
   -0.0856   -1.3361    0.3028 C   0  0  1  0  0  0  0  0  0  0  0  0
    2.2036    0.7558    0.6788 C   0  0  1  0  0  0  0  0  0  0  0  0
   -1.2950   -0.5347    0.7923 C   0  0  0  0  0  0  0  0  0  0  0  0
    3.4062   -0.1481    0.4847 C   0  0  0  0  0  0  0  0  0  0  0  0
    1.5043   -1.3338   -1.1832 H   0  0  0  0  0  0  0  0  0  0  0  0
    0.4031    1.4238   -0.3291 H   0  0  0  0  0  0  0  0  0  0  0  0
    0.5897   -1.4887    1.1491 H   0  0  0  0  0  0  0  0  0  0  0  0
    1.6989    0.4658    1.6057 H   0  0  0  0  0  0  0  0  0  0  0  0
   -0.9849    0.4375    1.1850 H   0  0  0  0  0  0  0  0  0  0  0  0
   -1.7699   -1.0913    1.6078 H   0  0  0  0  0  0  0  0  0  0  0  0
   -0.4193   -1.4543   -2.2824 H   0  0  0  0  0  0  0  0  0  0  0  0
    1.2792    1.2248   -2.3990 H   0  0  0  0  0  0  0  0  0  0  0  0
   -1.2485   -2.5302   -0.7242 H   0  0  0  0  0  0  0  0  0  0  0  0
    3.0369    2.4036    0.0481 H   0  0  0  0  0  0  0  0  0  0  0  0
    4.0104   -1.9498    0.9174 H   0  0  0  0  0  0  0  0  0  0  0  0
   -3.6960    2.5660    0.9710 H   0  0  0  0  0  0  0  0  0  0  0  0
   -5.0572   -0.0510    1.7751 H   0  0  0  0  0  0  0  0  0  0  0  0
  1  5  1  0  0  0  0
  1  9  1  0  0  0  0
  1 10  1  0  0  0  0
  1 11  2  0  0  0  0
  2 12  1  0  0  0  0
  2 24  1  0  0  0  0
  3 13  1  0  0  0  0
  3 25  1  0  0  0  0
  4 14  1  0  0  0  0
  4 26  1  0  0  0  0
  5 16  1  0  0  0  0
  6 15  1  0  0  0  0
  6 27  1  0  0  0  0
  7 17  1  0  0  0  0
  7 28  1  0  0  0  0
  8 17  2  0  0  0  0
  9 29  1  0  0  0  0
 10 30  1  0  0  0  0
 12 13  1  0  0  0  0
 12 14  1  0  0  0  0
 12 18  1  0  0  0  0
 13 15  1  0  0  0  0
 13 19  1  0  0  0  0
 14 16  1  0  0  0  0
 14 20  1  0  0  0  0
 15 17  1  0  0  0  0
 15 21  1  0  0  0  0
 16 22  1  0  0  0  0
 16 23  1  0  0  0  0
M  END
> <PUBCHEM_COMPOUND_CID>
6326748

> <PUBCHEM_CONFORMER_RMSD>
0.8

> <PUBCHEM_CONFORMER_DIVERSEORDER>
1
37
30
58
56
62
6
21
60
49
61
55
17
47
18
48
32
9
64
42
7
38
19
15
57
45
63
8
2
3
59
39
51
31
33
41
14
27
34
43
13
35
23
11
20
25
4
24
50
40
5
46
52
53
54
26
22
12
10
28
29
44
16
36

> <PUBCHEM_MMFF94_PARTIAL_CHARGES>
24
1 1.51
10 -0.77
11 -0.7
12 0.28
13 0.28
14 0.28
15 0.34
16 0.28
17 0.66
2 -0.68
24 0.4
25 0.4
26 0.4
27 0.4
28 0.5
29 0.5
3 -0.68
30 0.5
4 -0.68
5 -0.55
6 -0.68
7 -0.65
8 -0.57
9 -0.77

> <PUBCHEM_EFFECTIVE_ROTOR_COUNT>
7

> <PUBCHEM_PHARMACOPHORE_FEATURES>
15
1 10 acceptor
1 11 acceptor
1 2 acceptor
1 2 donor
1 3 acceptor
1 3 donor
1 4 acceptor
1 4 donor
1 6 acceptor
1 6 donor
1 7 acceptor
1 8 acceptor
1 9 acceptor
3 7 8 17 anion
4 1 9 10 11 anion

> <PUBCHEM_HEAVY_ATOM_COUNT>
17

> <PUBCHEM_ATOM_DEF_STEREO_COUNT>
4

> <PUBCHEM_ATOM_UDEF_STEREO_COUNT>
0

> <PUBCHEM_BOND_DEF_STEREO_COUNT>
0

> <PUBCHEM_BOND_UDEF_STEREO_COUNT>
0

> <PUBCHEM_ISOTOPIC_ATOM_COUNT>
0

> <PUBCHEM_COMPONENT_COUNT>
1

> <PUBCHEM_CACTVS_TAUTO_COUNT>
1

> <PUBCHEM_CONFORMER_ID>
006089DC00000001

> <PUBCHEM_MMFF94_ENERGY>
-2.5442

> <PUBCHEM_FEATURE_SELFOVERLAP>
76.253

> <PUBCHEM_SHAPE_FINGERPRINT>
11615756 56 18202285805521891465
11715629 250 17131002970874206505
12251169 10 17822015336604449659
12500047 106 18337951306988935618
12507560 40 17531252819570657341
13922767 16 18409444769535143800
14178342 30 17972865136991468978
14251739 40 18200021842086621207
14251764 30 14635159958238873568
14252887 29 15791735191740457904
15375462 189 12540693721337084144
15775835 57 18201999949377449073
17834069 15 18260824865298682484
18186145 218 16702035144652405829
18511873 20 18261109694834833498
19107657 47 18335133181261373017
192875 21 17561361785703354432
200 152 11455894659010914518
20233049 118 18413113853255087040
20281407 28 11386362673146499819
20281475 54 11097852999651139481
20871999 31 10591759853691252193
21524375 3 17988922288480501223
22485316 2 10809338949356880865
230 275 18336558139841080973
23184049 59 18261105249464768658
23402539 116 18272362088422796189
23557571 272 16200433542304699001
25610 137 9799692623038014818
265663 24 17989197144817695783
305870 269 18339362942369244227
3323516 105 10735580415041575435
351380 180 18201431476317910537
4175511 71 15647063659197003943
7364860 26 18055076458713336807
83771 10 7853852793475198695

> <PUBCHEM_SHAPE_MULTIPOLES>
295.01
7.73
1.79
1.34
3.6
0.29
-0.45
-2.23
1.55
-0.26
0.23
0.12
-0.09
-0.1

> <PUBCHEM_SHAPE_SELFOVERLAP>
561.148

> <PUBCHEM_SHAPE_VOLUME>
181.3

> <PUBCHEM_COORDINATE_TYPE>
2
5
10

$$$$
