88508108
  -OEChem-02062310133D

 25 24  0     1  0  0  0  0  0999 V2000
   -3.5499   -0.0482   -0.2411 P   0  0  0  0  0  0  0  0  0  0  0  0
    0.2856   -1.0444    1.4464 O   0  0  0  0  0  0  0  0  0  0  0  0
    1.4090    1.5554    0.9789 O   0  0  0  0  0  0  0  0  0  0  0  0
   -2.0519   -0.6109   -0.0170 O   0  0  0  0  0  0  0  0  0  0  0  0
    2.8804   -1.4937   -0.3337 O   0  0  0  0  0  0  0  0  0  0  0  0
    4.8393    0.1663   -1.0989 O   0  0  0  0  0  0  0  0  0  0  0  0
   -3.4595    0.7379   -1.6515 O   0  0  0  0  0  0  0  0  0  0  0  0
   -3.6468    1.1462    0.8448 O   0  0  0  0  0  0  0  0  0  0  0  0
   -4.6374   -1.0782   -0.1491 O   0  0  0  0  0  0  0  0  0  0  0  0
    1.5665    0.4757    0.0571 C   0  0  2  0  0  0  0  0  0  0  0  0
    0.3405   -0.4452    0.1525 C   0  0  2  0  0  0  0  0  0  0  0  0
    2.9053   -0.2300    0.3142 C   0  0  2  0  0  0  0  0  0  0  0  0
   -0.9678    0.3096   -0.0899 C   0  0  0  0  0  0  0  0  0  0  0  0
    4.0869    0.5595   -0.2128 C   0  0  0  0  0  0  0  0  0  0  0  0
    0.4154   -1.2629   -0.5736 H   0  0  0  0  0  0  0  0  0  0  0  0
    1.5767    0.9136   -0.9496 H   0  0  0  0  0  0  0  0  0  0  0  0
    3.0637   -0.3855    1.3873 H   0  0  0  0  0  0  0  0  0  0  0  0
   -0.9560    0.7849   -1.0755 H   0  0  0  0  0  0  0  0  0  0  0  0
   -1.1173    1.0734    0.6796 H   0  0  0  0  0  0  0  0  0  0  0  0
   -0.5069   -1.6076    1.4740 H   0  0  0  0  0  0  0  0  0  0  0  0
    2.1341    2.1844    0.8269 H   0  0  0  0  0  0  0  0  0  0  0  0
    4.2546    1.5385    0.2677 H   0  0  0  0  0  0  0  0  0  0  0  0
    3.6813   -1.9758   -0.0653 H   0  0  0  0  0  0  0  0  0  0  0  0
   -4.2771    1.1216   -2.0341 H   0  0  0  0  0  0  0  0  0  0  0  0
   -4.5065    1.5998    0.9758 H   0  0  0  0  0  0  0  0  0  0  0  0
  1  4  1  0  0  0  0
  1  7  1  0  0  0  0
  1  8  1  0  0  0  0
  1  9  2  0  0  0  0
  2 11  1  0  0  0  0
  2 20  1  0  0  0  0
  3 10  1  0  0  0  0
  3 21  1  0  0  0  0
  4 13  1  0  0  0  0
  5 12  1  0  0  0  0
  5 23  1  0  0  0  0
  6 14  2  0  0  0  0
  7 24  1  0  0  0  0
  8 25  1  0  0  0  0
 10 11  1  0  0  0  0
 10 12  1  0  0  0  0
 10 16  1  0  0  0  0
 11 13  1  0  0  0  0
 11 15  1  0  0  0  0
 12 14  1  0  0  0  0
 12 17  1  0  0  0  0
 13 18  1  0  0  0  0
 13 19  1  0  0  0  0
 14 22  1  0  0  0  0
M  END
> <PUBCHEM_COMPOUND_CID>
88508108

> <PUBCHEM_CONFORMER_RMSD>
0.6

> <PUBCHEM_CONFORMER_DIVERSEORDER>
1
168
198
173
22
150
98
141
201
135
15
79
216
165
87
215
121
116
210
21
94
11
161
131
89
3
151
71
63
145
81
203
140
59
67
14
171
167
160
42
57
74
157
75
192
61
128
195
34
132
207
45
159
138
44
54
148
212
133
6
124
104
102
119
16
209
213
107
194
204
64
137
156
5
83
181
30
96
29
73
47
78
142
123
97
26
134
108
52
43
68
7
17
27
174
19
130
115
206
99
155
182
185
4
113
35
154
146
80
169
105
48
202
197
172
25
33
109
76
199
23
58
189
62
95
91
112
120
55
117
179
85
90
103
193
38
164
175
214
111
184
92
110
93
176
126
147
188
186
183
13
205
9
163
72
18
77
211
114
177
191
122
49
60
20
28
162
37
139
180
66
69
53
50
153
65
82
136
70
46
143
127
170
125
106
118
152
51
41
158
200
24
218
2
10
149
40
187
84
32
196
31
129
190
101
88
12
166
56
8
100
217
36
208
86
144
39
178

> <PUBCHEM_MMFF94_PARTIAL_CHARGES>
20
1 1.51
10 0.28
11 0.28
12 0.34
13 0.28
14 0.45
2 -0.68
20 0.4
21 0.4
22 0.06
23 0.4
24 0.5
25 0.5
3 -0.68
4 -0.55
5 -0.68
6 -0.57
7 -0.77
8 -0.77
9 -0.7

> <PUBCHEM_EFFECTIVE_ROTOR_COUNT>
6

> <PUBCHEM_PHARMACOPHORE_FEATURES>
11
1 2 acceptor
1 2 donor
1 3 acceptor
1 3 donor
1 5 acceptor
1 5 donor
1 6 acceptor
1 7 acceptor
1 8 acceptor
1 9 acceptor
4 1 7 8 9 anion

> <PUBCHEM_HEAVY_ATOM_COUNT>
14

> <PUBCHEM_ATOM_DEF_STEREO_COUNT>
3

> <PUBCHEM_ATOM_UDEF_STEREO_COUNT>
0

> <PUBCHEM_BOND_DEF_STEREO_COUNT>
0

> <PUBCHEM_BOND_UDEF_STEREO_COUNT>
0

> <PUBCHEM_ISOTOPIC_ATOM_COUNT>
0

> <PUBCHEM_COMPONENT_COUNT>
1

> <PUBCHEM_CACTVS_TAUTO_COUNT>
8

> <PUBCHEM_CONFORMER_ID>
054686CC00000001

> <PUBCHEM_MMFF94_ENERGY>
-12.3397

> <PUBCHEM_FEATURE_SELFOVERLAP>
55.874

> <PUBCHEM_SHAPE_FINGERPRINT>
11132069 177 11674878896340685000
114248 4 18341332270652253014
12616999 72 18411985754462126014
12932764 1 18114167628204596259
14123238 8 18186803599201598991
14251718 22 18261113023107479271
14943859 89 15936412264533547080
14993402 34 17775570849177512342
17834072 33 18411419556880055925
18186145 218 18410852183142234504
1986462 14 18411699889854421159
200 152 17704357658536870546
20281475 54 18341047432594986098
20645477 70 18339646638034405798
21119208 17 17632860827865675764
21293036 1 18113618993071204272
22485316 2 14476958991118566324
23402539 116 17989208118522505376
23402655 69 18410008806168207565
23526113 38 18334300851064739458
26918003 58 10807938167190124303
42 15 13110967526195727684
4990 188 18408324384709408558
58051976 100 18129657629500218991

> <PUBCHEM_SHAPE_MULTIPOLES>
245.01
9.31
1.19
1.06
1.21
0.03
-0.06
-0.25
-2.62
0.04
0.18
0.2
-0.15
0.1

> <PUBCHEM_SHAPE_SELFOVERLAP>
456.06

> <PUBCHEM_SHAPE_VOLUME>
153.5

> <PUBCHEM_COORDINATE_TYPE>
2
5
10

$$$$
