90658186
  -OEChem-02062310113D

 39 39  0     1  0  0  0  0  0999 V2000
    5.2826    0.3696   -0.0021 P   0  0  0  0  0  0  0  0  0  0  0  0
   -1.3711    0.5046    0.1811 O   0  0  0  0  0  0  0  0  0  0  0  0
   -1.8665   -3.1009   -0.3885 O   0  0  0  0  0  0  0  0  0  0  0  0
   -4.4883   -2.2024    0.4085 O   0  0  0  0  0  0  0  0  0  0  0  0
    0.2769   -1.2393    1.6354 O   0  0  0  0  0  0  0  0  0  0  0  0
   -2.6657    1.2397   -1.6649 O   0  0  0  0  0  0  0  0  0  0  0  0
    1.3622   -0.0204   -1.6415 O   0  0  0  0  0  0  0  0  0  0  0  0
    3.7024    0.5284   -0.2968 O   0  0  0  0  0  0  0  0  0  0  0  0
   -3.9968    2.8757    0.0089 O   0  0  0  0  0  0  0  0  0  0  0  0
   -1.9990    2.8679    1.1064 O   0  0  0  0  0  0  0  0  0  0  0  0
    5.6319   -1.1090   -0.5559 O   0  0  0  0  0  0  0  0  0  0  0  0
    5.3267    0.1855    1.6039 O   0  0  0  0  0  0  0  0  0  0  0  0
    6.1447    1.4754   -0.5373 O   0  0  0  0  0  0  0  0  0  0  0  0
   -1.0606   -0.8096   -0.2930 C   0  0  2  0  0  0  0  0  0  0  0  0
   -2.1101   -1.8203    0.1872 C   0  0  1  0  0  0  0  0  0  0  0  0
   -3.5145   -1.3756   -0.2247 C   0  0  2  0  0  0  0  0  0  0  0  0
   -3.7668    0.0708    0.1922 C   0  0  0  0  0  0  0  0  0  0  0  0
    0.3379   -1.1492    0.2142 C   0  0  1  0  0  0  0  0  0  0  0  0
   -2.6326    0.9853   -0.2681 C   0  0  1  0  0  0  0  0  0  0  0  0
    1.3930   -0.1208   -0.2132 C   0  0  1  0  0  0  0  0  0  0  0  0
   -2.8086    2.3298    0.3660 C   0  0  0  0  0  0  0  0  0  0  0  0
    2.8222   -0.4851    0.1821 C   0  0  0  0  0  0  0  0  0  0  0  0
   -1.0396   -0.7975   -1.3907 H   0  0  0  0  0  0  0  0  0  0  0  0
   -2.0863   -1.9407    1.2764 H   0  0  0  0  0  0  0  0  0  0  0  0
   -3.6467   -1.4965   -1.3065 H   0  0  0  0  0  0  0  0  0  0  0  0
   -4.7359    0.3922   -0.2105 H   0  0  0  0  0  0  0  0  0  0  0  0
   -3.8629    0.1072    1.2865 H   0  0  0  0  0  0  0  0  0  0  0  0
    0.6163   -2.1375   -0.1728 H   0  0  0  0  0  0  0  0  0  0  0  0
    1.1592    0.8706    0.1928 H   0  0  0  0  0  0  0  0  0  0  0  0
    3.1076   -1.4386   -0.2739 H   0  0  0  0  0  0  0  0  0  0  0  0
    2.9159   -0.5607    1.2689 H   0  0  0  0  0  0  0  0  0  0  0  0
   -1.8663   -3.0011   -1.3557 H   0  0  0  0  0  0  0  0  0  0  0  0
   -5.3651   -1.8976    0.1189 H   0  0  0  0  0  0  0  0  0  0  0  0
    1.1074   -1.6391    1.9433 H   0  0  0  0  0  0  0  0  0  0  0  0
   -3.2901    0.6253   -2.0841 H   0  0  0  0  0  0  0  0  0  0  0  0
    2.0216    0.6458   -1.9010 H   0  0  0  0  0  0  0  0  0  0  0  0
   -4.1320    3.7578    0.4163 H   0  0  0  0  0  0  0  0  0  0  0  0
    6.5641   -1.4138   -0.5399 H   0  0  0  0  0  0  0  0  0  0  0  0
    6.1974    0.1589    2.0547 H   0  0  0  0  0  0  0  0  0  0  0  0
  1  8  1  0  0  0  0
  1 11  1  0  0  0  0
  1 12  1  0  0  0  0
  1 13  2  0  0  0  0
  2 14  1  0  0  0  0
  2 19  1  0  0  0  0
  3 15  1  0  0  0  0
  3 32  1  0  0  0  0
  4 16  1  0  0  0  0
  4 33  1  0  0  0  0
  5 18  1  0  0  0  0
  5 34  1  0  0  0  0
  6 19  1  0  0  0  0
  6 35  1  0  0  0  0
  7 20  1  0  0  0  0
  7 36  1  0  0  0  0
  8 22  1  0  0  0  0
  9 21  1  0  0  0  0
  9 37  1  0  0  0  0
 10 21  2  0  0  0  0
 11 38  1  0  0  0  0
 12 39  1  0  0  0  0
 14 15  1  0  0  0  0
 14 18  1  0  0  0  0
 14 23  1  0  0  0  0
 15 16  1  0  0  0  0
 15 24  1  0  0  0  0
 16 17  1  0  0  0  0
 16 25  1  0  0  0  0
 17 19  1  0  0  0  0
 17 26  1  0  0  0  0
 17 27  1  0  0  0  0
 18 20  1  0  0  0  0
 18 28  1  0  0  0  0
 19 21  1  0  0  0  0
 20 22  1  0  0  0  0
 20 29  1  0  0  0  0
 22 30  1  0  0  0  0
 22 31  1  0  0  0  0
M  END
> <PUBCHEM_COMPOUND_CID>
90658186

> <PUBCHEM_CONFORMER_RMSD>
0.8

> <PUBCHEM_CONFORMER_DIVERSEORDER>
1
52
67
82
77
73
27
58
79
22
4
37
49
38
56
54
70
30
51
28
75
68
66
55
72
6
42
80
14
60
74
17
47
71
26
57
61
44
8
63
40
16
62
19
15
78
10
81
45
69
76
46
34
29
39
11
53
2
13
50
21
59
41
23
48
5
65
36
24
64
25
12
20
43
31
9
35
33
7
3
32
18

> <PUBCHEM_MMFF94_PARTIAL_CHARGES>
29
1 1.51
10 -0.57
11 -0.77
12 -0.77
13 -0.7
14 0.28
15 0.28
16 0.28
18 0.28
19 0.62
2 -0.56
20 0.28
21 0.66
22 0.28
3 -0.68
32 0.4
33 0.4
34 0.4
35 0.4
36 0.4
37 0.5
38 0.5
39 0.5
4 -0.68
5 -0.68
6 -0.68
7 -0.68
8 -0.55
9 -0.65

> <PUBCHEM_EFFECTIVE_ROTOR_COUNT>
7.2

> <PUBCHEM_PHARMACOPHORE_FEATURES>
19
1 10 acceptor
1 11 acceptor
1 12 acceptor
1 13 acceptor
1 2 acceptor
1 3 acceptor
1 3 donor
1 4 acceptor
1 4 donor
1 5 acceptor
1 5 donor
1 6 acceptor
1 6 donor
1 7 acceptor
1 7 donor
1 9 acceptor
3 9 10 21 anion
4 1 11 12 13 anion
6 2 14 15 16 17 19 rings

> <PUBCHEM_HEAVY_ATOM_COUNT>
22

> <PUBCHEM_ATOM_DEF_STEREO_COUNT>
6

> <PUBCHEM_ATOM_UDEF_STEREO_COUNT>
0

> <PUBCHEM_BOND_DEF_STEREO_COUNT>
0

> <PUBCHEM_BOND_UDEF_STEREO_COUNT>
0

> <PUBCHEM_ISOTOPIC_ATOM_COUNT>
0

> <PUBCHEM_COMPONENT_COUNT>
1

> <PUBCHEM_CACTVS_TAUTO_COUNT>
1

> <PUBCHEM_CONFORMER_ID>
0567558A00000001

> <PUBCHEM_MMFF94_ENERGY>
14.9411

> <PUBCHEM_FEATURE_SELFOVERLAP>
96.592

> <PUBCHEM_SHAPE_FINGERPRINT>
10411042 1 17906735057384248719
10912923 1 17894345593015986568
11315181 36 18187082879993346844
12107183 9 17975126544715508794
12173636 292 18269276768590549997
12236239 1 17822004337172261498
12390115 104 18200044949332160785
12403259 415 17846778538086484312
12596602 18 17749103439612406160
12916748 109 18408608093280148730
13073987 5 18335417981133523618
13140716 1 18047481303024373523
13167823 11 18335136488761068562
13403585 85 18341607170493125552
13583140 156 17703500074154296438
13965767 371 17610630713055787293
14142880 1 18187083910938803773
14251764 38 18337393867727065976
14251764 75 17552650148908519049
14573314 32 18342179951747987262
15042514 8 18265058122827327379
15209294 21 18186801348981627124
1741750 31 18340205176760319891
17844677 252 18411708712039045916
18915476 22 16773248274868262886
19489759 90 18411134745193882042
20300324 65 18409730694098090018
20510252 161 18342742897237636075
20645477 56 18342181054789567579
20645477 70 16630259021913601750
21033648 29 17560505271094087160
21065198 48 18259980466623787650
2297311 6 18341904038068271870
23402539 116 18341326781900619215
23557571 272 18272098213916122438
23559900 14 18339635767144794120
283562 15 18335700555511566459
34797466 226 17987812941973768684
350125 39 18336830882986157645
4214541 1 18410293597297299684
445580 37 18338248158613438476
5104073 3 18260543421093605928
573450 72 18261664922663936082
6327066 14 18190175677380389589
7808743 9 18339360743288369457
90127 26 18334588949371273320
9981440 41 18410854322194548147

> <PUBCHEM_SHAPE_MULTIPOLES>
386.17
11.69
2.76
1.09
20.29
0.68
0.02
2.37
0.12
-4.27
0.32
0.39
0.14
-0.13

> <PUBCHEM_SHAPE_SELFOVERLAP>
770.963

> <PUBCHEM_SHAPE_VOLUME>
228.3

> <PUBCHEM_COORDINATE_TYPE>
2
5
10

$$$$
