94136
  -OEChem-02062310163D

 37 39  0     1  0  0  0  0  0999 V2000
    2.4438   -2.4837   -0.5882 P   0  0  0  0  0  0  0  0  0  0  0  0
    1.0770    2.0059    0.8896 O   0  0  0  0  0  0  0  0  0  0  0  0
    1.3750   -1.4930    0.1220 O   0  0  0  0  0  0  0  0  0  0  0  0
    3.1711   -0.0923    1.6042 O   0  0  0  0  0  0  0  0  0  0  0  0
    2.3502    4.1221   -0.4383 O   0  0  0  0  0  0  0  0  0  0  0  0
    2.1014   -2.3501   -2.1630 O   0  0  0  0  0  0  0  0  0  0  0  0
    1.8862   -3.9537   -0.2098 O   0  0  0  0  0  0  0  0  0  0  0  0
    3.8772   -2.2354   -0.2199 O   0  0  0  0  0  0  0  0  0  0  0  0
   -0.8341    0.7962    0.1725 N   0  0  0  0  0  0  0  0  0  0  0  0
   -2.5199    1.5784   -1.0623 N   0  0  0  0  0  0  0  0  0  0  0  0
   -1.9445   -1.0764    1.2507 N   0  0  0  0  0  0  0  0  0  0  0  0
   -4.2729   -1.2560    0.5422 N   0  0  0  0  0  0  0  0  0  0  0  0
   -5.2602    0.2613   -1.0232 N   0  0  0  0  0  0  0  0  0  0  0  0
    1.4838   -0.1031   -0.1081 C   0  0  2  0  0  0  0  0  0  0  0  0
    2.8126    0.4710    0.3424 C   0  0  1  0  0  0  0  0  0  0  0  0
    0.5062    0.6912    0.7446 C   0  0  1  0  0  0  0  0  0  0  0  0
    2.4792    1.9465    0.5393 C   0  0  1  0  0  0  0  0  0  0  0  0
    2.6954    2.7768   -0.7181 C   0  0  0  0  0  0  0  0  0  0  0  0
   -1.9021   -0.0181    0.4275 C   0  0  0  0  0  0  0  0  0  0  0  0
   -1.2566    1.7396   -0.7281 C   0  0  0  0  0  0  0  0  0  0  0  0
   -2.9357    0.4832   -0.3475 C   0  0  0  0  0  0  0  0  0  0  0  0
   -4.1574   -0.1779   -0.2702 C   0  0  0  0  0  0  0  0  0  0  0  0
   -3.1754   -1.6326    1.2419 C   0  0  0  0  0  0  0  0  0  0  0  0
    1.3230    0.1008   -1.1738 H   0  0  0  0  0  0  0  0  0  0  0  0
    0.3913    0.2628    1.7479 H   0  0  0  0  0  0  0  0  0  0  0  0
    3.6339    0.2989   -0.3583 H   0  0  0  0  0  0  0  0  0  0  0  0
    3.0297    2.3895    1.3771 H   0  0  0  0  0  0  0  0  0  0  0  0
    2.0676    2.4384   -1.5484 H   0  0  0  0  0  0  0  0  0  0  0  0
    3.7423    2.7484   -1.0341 H   0  0  0  0  0  0  0  0  0  0  0  0
    4.0003    0.3309    1.8853 H   0  0  0  0  0  0  0  0  0  0  0  0
   -0.6058    2.5144   -1.1100 H   0  0  0  0  0  0  0  0  0  0  0  0
    1.4196    4.1334   -0.1559 H   0  0  0  0  0  0  0  0  0  0  0  0
   -3.3038   -2.4992    1.8817 H   0  0  0  0  0  0  0  0  0  0  0  0
    2.6749   -2.8080   -2.8138 H   0  0  0  0  0  0  0  0  0  0  0  0
    2.4200   -4.7404   -0.4515 H   0  0  0  0  0  0  0  0  0  0  0  0
   -5.1764    1.0653   -1.6305 H   0  0  0  0  0  0  0  0  0  0  0  0
   -6.1372   -0.2361   -0.9502 H   0  0  0  0  0  0  0  0  0  0  0  0
  1  3  1  0  0  0  0
  1  6  1  0  0  0  0
  1  7  1  0  0  0  0
  1  8  2  0  0  0  0
  2 16  1  0  0  0  0
  2 17  1  0  0  0  0
  3 14  1  0  0  0  0
  4 15  1  0  0  0  0
  4 30  1  0  0  0  0
  5 18  1  0  0  0  0
  5 32  1  0  0  0  0
  6 34  1  0  0  0  0
  7 35  1  0  0  0  0
  9 16  1  0  0  0  0
  9 19  1  0  0  0  0
  9 20  1  0  0  0  0
 10 20  2  0  0  0  0
 10 21  1  0  0  0  0
 11 19  2  0  0  0  0
 11 23  1  0  0  0  0
 12 22  1  0  0  0  0
 12 23  2  0  0  0  0
 13 22  1  0  0  0  0
 13 36  1  0  0  0  0
 13 37  1  0  0  0  0
 14 15  1  0  0  0  0
 14 16  1  0  0  0  0
 14 24  1  0  0  0  0
 15 17  1  0  0  0  0
 15 26  1  0  0  0  0
 16 25  1  0  0  0  0
 17 18  1  0  0  0  0
 17 27  1  0  0  0  0
 18 28  1  0  0  0  0
 18 29  1  0  0  0  0
 19 21  1  0  0  0  0
 20 31  1  0  0  0  0
 21 22  2  0  0  0  0
 23 33  1  0  0  0  0
M  END
> <PUBCHEM_COMPOUND_CID>
94136

> <PUBCHEM_CONFORMER_RMSD>
0.8

> <PUBCHEM_CONFORMER_DIVERSEORDER>
1
9
13
8
2
12
5
3
11
6
7
10
4

> <PUBCHEM_MMFF94_PARTIAL_CHARGES>
31
1 1.51
10 -0.57
11 -0.57
12 -0.62
13 -0.9
14 0.28
15 0.28
16 0.54
17 0.28
18 0.28
19 0.11
2 -0.56
20 0.04
21 0.23
22 0.41
23 0.47
3 -0.55
30 0.4
31 0.15
32 0.4
33 0.15
34 0.5
35 0.5
36 0.4
37 0.4
4 -0.68
5 -0.68
6 -0.77
7 -0.77
8 -0.7
9 0.05

> <PUBCHEM_EFFECTIVE_ROTOR_COUNT>
5

> <PUBCHEM_PHARMACOPHORE_FEATURES>
17
1 13 cation
1 13 donor
1 2 acceptor
1 4 acceptor
1 4 donor
1 5 acceptor
1 5 donor
1 6 acceptor
1 7 acceptor
1 8 acceptor
3 11 12 23 cation
3 9 10 20 cation
3 9 11 19 cation
4 1 6 7 8 anion
5 2 14 15 16 17 rings
5 9 10 19 20 21 rings
6 11 12 19 21 22 23 rings

> <PUBCHEM_HEAVY_ATOM_COUNT>
23

> <PUBCHEM_ATOM_DEF_STEREO_COUNT>
4

> <PUBCHEM_ATOM_UDEF_STEREO_COUNT>
0

> <PUBCHEM_BOND_DEF_STEREO_COUNT>
0

> <PUBCHEM_BOND_UDEF_STEREO_COUNT>
0

> <PUBCHEM_ISOTOPIC_ATOM_COUNT>
0

> <PUBCHEM_COMPONENT_COUNT>
1

> <PUBCHEM_CACTVS_TAUTO_COUNT>
3

> <PUBCHEM_CONFORMER_ID>
00016FB800000001

> <PUBCHEM_MMFF94_ENERGY>
20.4003

> <PUBCHEM_FEATURE_SELFOVERLAP>
86.92

> <PUBCHEM_SHAPE_FINGERPRINT>
10616163 171 18118967129324314843
11578080 2 14999609674576988660
12363563 72 18055640507856795174
12553582 1 17908158585175156522
13533116 47 18273498988189335315
13544592 145 18261672567821585407
14866123 147 16900743013487779555
15375358 24 18115299107347926329
15422964 175 18268420231741710798
15502722 9 18412269462304612396
15635459 17 18411417272037075755
17138139 8 16912254269145066439
17818456 19 17201089071838859065
19591789 44 17834682964961140704
20600515 1 17542473091283304280
20645477 70 18409160047948285715
20671657 53 18196937664852422730
221490 88 18408328778292179810
23114952 82 18334861610220946573
23419403 2 16618932776257411272
23557571 272 17531536498145009849
23558518 356 18269558226540963329
23559900 14 18335416863566281121
238 59 18339626923733149103
2748010 2 18197772198651901734
3060560 45 18339927129626921868
458136 41 18196670698238133032
495365 180 18128238181400429529
5104073 3 17968089893620640049
5262128 65 18268998600216443635
633830 44 18261658295930409525
6669772 16 18127422357390647460
7364860 26 18410294722473528460
81228 2 17263290531859896216
8272917 22 18342462564442690117
9709674 26 18335416872604680107
9925002 15 16461087423322703885

> <PUBCHEM_SHAPE_MULTIPOLES>
411.19
7.82
3.84
1.24
7.58
0.35
-0.13
1.19
-0.65
-5.15
-1.07
-0.1
0.35
1.38

> <PUBCHEM_SHAPE_SELFOVERLAP>
872.706

> <PUBCHEM_SHAPE_VOLUME>
232

> <PUBCHEM_COORDINATE_TYPE>
2
5
10

$$$$
