9859975
  -OEChem-02062310133D

 29 29  0     1  0  0  0  0  0999 V2000
    3.6870   -0.0881    0.2032 P   0  0  0  0  0  0  0  0  0  0  0  0
   -1.0058    1.3328   -0.7407 O   0  0  0  0  0  0  0  0  0  0  0  0
   -0.4925   -1.4878   -1.1285 O   0  0  0  0  0  0  0  0  0  0  0  0
   -2.6334   -2.3029    0.4372 O   0  0  0  0  0  0  0  0  0  0  0  0
   -4.3209    0.0011    0.0904 O   0  0  0  0  0  0  0  0  0  0  0  0
   -2.5692    1.9794    0.9143 O   0  0  0  0  0  0  0  0  0  0  0  0
    2.0974   -0.0580    0.5115 O   0  0  0  0  0  0  0  0  0  0  0  0
    4.0820    1.4746    0.0732 O   0  0  0  0  0  0  0  0  0  0  0  0
    3.7495   -0.6158   -1.3241 O   0  0  0  0  0  0  0  0  0  0  0  0
    4.5069   -0.8780    1.1809 O   0  0  0  0  0  0  0  0  0  0  0  0
   -0.6686   -0.9113    0.1680 C   0  0  2  0  0  0  0  0  0  0  0  0
   -2.1487   -0.9683    0.5563 C   0  0  1  0  0  0  0  0  0  0  0  0
   -0.1837    0.5439    0.1337 C   0  0  1  0  0  0  0  0  0  0  0  0
   -2.9685   -0.0513   -0.3515 C   0  0  2  0  0  0  0  0  0  0  0  0
   -2.3839    1.3634   -0.3594 C   0  0  2  0  0  0  0  0  0  0  0  0
    1.2524    0.6663   -0.3644 C   0  0  0  0  0  0  0  0  0  0  0  0
   -0.0796   -1.5178    0.8641 H   0  0  0  0  0  0  0  0  0  0  0  0
   -2.2729   -0.6752    1.6058 H   0  0  0  0  0  0  0  0  0  0  0  0
   -0.2361    0.9616    1.1476 H   0  0  0  0  0  0  0  0  0  0  0  0
   -2.9798   -0.4625   -1.3679 H   0  0  0  0  0  0  0  0  0  0  0  0
   -2.9248    1.9713   -1.0934 H   0  0  0  0  0  0  0  0  0  0  0  0
    1.5474    1.7215   -0.3750 H   0  0  0  0  0  0  0  0  0  0  0  0
    1.3516    0.2951   -1.3898 H   0  0  0  0  0  0  0  0  0  0  0  0
   -0.8528   -0.8730   -1.7895 H   0  0  0  0  0  0  0  0  0  0  0  0
   -3.5792   -2.2904    0.6633 H   0  0  0  0  0  0  0  0  0  0  0  0
   -4.8040    0.5918   -0.5125 H   0  0  0  0  0  0  0  0  0  0  0  0
   -2.5899    2.9402    0.7669 H   0  0  0  0  0  0  0  0  0  0  0  0
    5.0247    1.7174   -0.0472 H   0  0  0  0  0  0  0  0  0  0  0  0
    4.6241   -0.8098   -1.7237 H   0  0  0  0  0  0  0  0  0  0  0  0
  1  7  1  0  0  0  0
  1  8  1  0  0  0  0
  1  9  1  0  0  0  0
  1 10  2  0  0  0  0
  2 13  1  0  0  0  0
  2 15  1  0  0  0  0
  3 11  1  0  0  0  0
  3 24  1  0  0  0  0
  4 12  1  0  0  0  0
  4 25  1  0  0  0  0
  5 14  1  0  0  0  0
  5 26  1  0  0  0  0
  6 15  1  0  0  0  0
  6 27  1  0  0  0  0
  7 16  1  0  0  0  0
  8 28  1  0  0  0  0
  9 29  1  0  0  0  0
 11 12  1  0  0  0  0
 11 13  1  0  0  0  0
 11 17  1  0  0  0  0
 12 14  1  0  0  0  0
 12 18  1  0  0  0  0
 13 16  1  0  0  0  0
 13 19  1  0  0  0  0
 14 15  1  0  0  0  0
 14 20  1  0  0  0  0
 15 21  1  0  0  0  0
 16 22  1  0  0  0  0
 16 23  1  0  0  0  0
M  END
> <PUBCHEM_COMPOUND_CID>
9859975

> <PUBCHEM_CONFORMER_RMSD>
0.6

> <PUBCHEM_CONFORMER_DIVERSEORDER>
1
16
23
15
11
2
14
12
19
25
5
6
13
20
24
8
3
18
10
21
9
7
4
22
17

> <PUBCHEM_MMFF94_PARTIAL_CHARGES>
22
1 1.51
10 -0.7
11 0.28
12 0.28
13 0.28
14 0.28
15 0.56
16 0.28
2 -0.56
24 0.4
25 0.4
26 0.4
27 0.4
28 0.5
29 0.5
3 -0.68
4 -0.68
5 -0.68
6 -0.68
7 -0.55
8 -0.77
9 -0.77

> <PUBCHEM_EFFECTIVE_ROTOR_COUNT>
4.2

> <PUBCHEM_PHARMACOPHORE_FEATURES>
14
1 10 acceptor
1 2 acceptor
1 3 acceptor
1 3 donor
1 4 acceptor
1 4 donor
1 5 acceptor
1 5 donor
1 6 acceptor
1 6 donor
1 8 acceptor
1 9 acceptor
4 1 8 9 10 anion
6 2 11 12 13 14 15 rings

> <PUBCHEM_HEAVY_ATOM_COUNT>
16

> <PUBCHEM_ATOM_DEF_STEREO_COUNT>
5

> <PUBCHEM_ATOM_UDEF_STEREO_COUNT>
0

> <PUBCHEM_BOND_DEF_STEREO_COUNT>
0

> <PUBCHEM_BOND_UDEF_STEREO_COUNT>
0

> <PUBCHEM_ISOTOPIC_ATOM_COUNT>
0

> <PUBCHEM_COMPONENT_COUNT>
1

> <PUBCHEM_CACTVS_TAUTO_COUNT>
1

> <PUBCHEM_CONFORMER_ID>
0096738700000001

> <PUBCHEM_MMFF94_ENERGY>
2.3936

> <PUBCHEM_FEATURE_SELFOVERLAP>
71.15

> <PUBCHEM_SHAPE_FINGERPRINT>
11132069 177 18334858328881535597
12932764 1 17821728304335768300
13024252 1 14345792739004431685
13296908 3 18412266155585865826
14144814 61 18260264131696215480
15219456 202 18059018267621955974
16945 1 18410023134711713909
17804303 29 18410858784665048489
17834074 16 18412547596002689902
18186145 218 18058170527325406276
19422 9 18113900472596174378
20279233 1 17632292376671091014
20510252 161 18343586209486661761
20645477 70 17131558232904571318
20871998 184 18270965751262594687
22485316 2 18187361064856303690
23402539 116 18412535519002734951
23559900 14 18410853266133252512
4175511 318 17822002099773505373
5104073 3 18408602586905261720
58051976 100 18408040706556971302
69090 78 18131625699094026743
9709674 26 18342460313922272078

> <PUBCHEM_SHAPE_MULTIPOLES>
280.3
7.97
1.75
0.95
6.81
0.11
0.09
0.16
-0.95
-1.14
-0.14
0.42
0.11
-0.07

> <PUBCHEM_SHAPE_SELFOVERLAP>
547.924

> <PUBCHEM_SHAPE_VOLUME>
168.7

> <PUBCHEM_COORDINATE_TYPE>
2
5
10

$$$$
