107126
  -OEChem-01082403213D

 35 35  0     1  0  0  0  0  0999 V2000
    1.6846   -2.4266   -1.5913 O   0  0  0  0  0  0  0  0  0  0  0  0
    2.4834    2.8735   -0.8961 O   0  0  0  0  0  0  0  0  0  0  0  0
    0.3630    2.6409   -0.1018 O   0  0  0  0  0  0  0  0  0  0  0  0
    0.6308   -0.6038   -0.3924 C   0  0  2  0  0  0  0  0  0  0  0  0
    1.1226    0.0334    0.9209 C   0  0  1  0  0  0  0  0  0  0  0  0
    1.7559   -1.1277    1.6955 C   0  0  0  0  0  0  0  0  0  0  0  0
   -0.7898   -1.1409   -0.2922 C   0  0  0  0  0  0  0  0  0  0  0  0
    2.4591   -1.9801    0.6468 C   0  0  0  0  0  0  0  0  0  0  0  0
    1.6016   -1.7542   -0.5706 C   0  0  0  0  0  0  0  0  0  0  0  0
    2.1354    1.1508    0.6593 C   0  0  0  0  0  0  0  0  0  0  0  0
   -1.8104   -0.0106   -0.1494 C   0  0  0  0  0  0  0  0  0  0  0  0
   -3.2392   -0.5527   -0.0840 C   0  0  0  0  0  0  0  0  0  0  0  0
    1.5311    2.2834   -0.1288 C   0  0  0  0  0  0  0  0  0  0  0  0
   -4.2546    0.5761    0.0925 C   0  0  0  0  0  0  0  0  0  0  0  0
   -5.6733    0.0384    0.1916 C   0  0  0  0  0  0  0  0  0  0  0  0
    0.7275    0.0674   -1.2517 H   0  0  0  0  0  0  0  0  0  0  0  0
    0.3101    0.4560    1.5189 H   0  0  0  0  0  0  0  0  0  0  0  0
    0.9696   -1.7193    2.1810 H   0  0  0  0  0  0  0  0  0  0  0  0
    2.4450   -0.7954    2.4784 H   0  0  0  0  0  0  0  0  0  0  0  0
   -0.8849   -1.8365    0.5511 H   0  0  0  0  0  0  0  0  0  0  0  0
   -1.0222   -1.7243   -1.1926 H   0  0  0  0  0  0  0  0  0  0  0  0
    2.4744   -3.0353    0.9283 H   0  0  0  0  0  0  0  0  0  0  0  0
    3.4715   -1.6202    0.4447 H   0  0  0  0  0  0  0  0  0  0  0  0
    2.5048    1.5633    1.6049 H   0  0  0  0  0  0  0  0  0  0  0  0
    2.9979    0.7602    0.1062 H   0  0  0  0  0  0  0  0  0  0  0  0
   -1.6241    0.5758    0.7552 H   0  0  0  0  0  0  0  0  0  0  0  0
   -1.7202    0.6741   -1.0016 H   0  0  0  0  0  0  0  0  0  0  0  0
   -3.4643   -1.1112   -1.0006 H   0  0  0  0  0  0  0  0  0  0  0  0
   -3.3255   -1.2567    0.7528 H   0  0  0  0  0  0  0  0  0  0  0  0
   -4.0244    1.1470    0.9996 H   0  0  0  0  0  0  0  0  0  0  0  0
   -4.1899    1.2705   -0.7532 H   0  0  0  0  0  0  0  0  0  0  0  0
   -5.9478   -0.5130   -0.7133 H   0  0  0  0  0  0  0  0  0  0  0  0
   -6.3830    0.8622    0.3160 H   0  0  0  0  0  0  0  0  0  0  0  0
   -5.7793   -0.6336    1.0492 H   0  0  0  0  0  0  0  0  0  0  0  0
    2.1195    3.6167   -1.4230 H   0  0  0  0  0  0  0  0  0  0  0  0
  1  9  2  0  0  0  0
  2 13  1  0  0  0  0
  2 35  1  0  0  0  0
  3 13  2  0  0  0  0
  4  5  1  0  0  0  0
  4  7  1  0  0  0  0
  4  9  1  0  0  0  0
  4 16  1  0  0  0  0
  5  6  1  0  0  0  0
  5 10  1  0  0  0  0
  5 17  1  0  0  0  0
  6  8  1  0  0  0  0
  6 18  1  0  0  0  0
  6 19  1  0  0  0  0
  7 11  1  0  0  0  0
  7 20  1  0  0  0  0
  7 21  1  0  0  0  0
  8  9  1  0  0  0  0
  8 22  1  0  0  0  0
  8 23  1  0  0  0  0
 10 13  1  0  0  0  0
 10 24  1  0  0  0  0
 10 25  1  0  0  0  0
 11 12  1  0  0  0  0
 11 26  1  0  0  0  0
 11 27  1  0  0  0  0
 12 14  1  0  0  0  0
 12 28  1  0  0  0  0
 12 29  1  0  0  0  0
 14 15  1  0  0  0  0
 14 30  1  0  0  0  0
 14 31  1  0  0  0  0
 15 32  1  0  0  0  0
 15 33  1  0  0  0  0
 15 34  1  0  0  0  0
M  END
> <PUBCHEM_COMPOUND_CID>
107126

> <PUBCHEM_CONFORMER_RMSD>
0.8

> <PUBCHEM_CONFORMER_DIVERSEORDER>
1
50
51
97
95
111
128
91
123
113
37
120
47
67
84
9
127
108
27
129
70
106
5
116
68
65
81
8
66
75
118
71
42
130
41
105
36
125
74
115
60
11
16
85
78
114
63
33
20
94
112
83
43
124
126
53
40
109
79
102
121
4
46
93
18
61
110
15
89
58
69
86
10
100
107
122
38
14
96
98
32
101
103
6
49
52
99
90
76
104
54
56
34
80
12
77
48
24
72
25
3
88
13
2
87
19
17
7
117
82
92
22
119
30
21
39
57
23
29
28
45
35
59
64
44
73
62
26
31
55

> <PUBCHEM_MMFF94_PARTIAL_CHARGES>
9
1 -0.57
10 0.06
13 0.66
2 -0.65
3 -0.57
35 0.5
4 0.06
8 0.06
9 0.45

> <PUBCHEM_EFFECTIVE_ROTOR_COUNT>
6.8

> <PUBCHEM_PHARMACOPHORE_FEATURES>
7
1 1 acceptor
1 15 hydrophobe
1 2 acceptor
1 3 acceptor
3 2 3 13 anion
4 7 11 12 14 hydrophobe
5 4 5 6 8 9 rings

> <PUBCHEM_HEAVY_ATOM_COUNT>
15

> <PUBCHEM_ATOM_DEF_STEREO_COUNT>
0

> <PUBCHEM_ATOM_UDEF_STEREO_COUNT>
2

> <PUBCHEM_BOND_DEF_STEREO_COUNT>
0

> <PUBCHEM_BOND_UDEF_STEREO_COUNT>
0

> <PUBCHEM_ISOTOPIC_ATOM_COUNT>
0

> <PUBCHEM_COMPONENT_COUNT>
1

> <PUBCHEM_CACTVS_TAUTO_COUNT>
3

> <PUBCHEM_CONFORMER_ID>
0001A27600000001

> <PUBCHEM_MMFF94_ENERGY>
15.0336

> <PUBCHEM_FEATURE_SELFOVERLAP>
35.577

> <PUBCHEM_SHAPE_FINGERPRINT>
10382601 240 18260264191530787272
10980938 120 18339921614677669965
116883 192 18125720084992698213
12346645 6 18342172288903715181
12616999 72 18130509729705317315
12617007 42 18200043828023891351
12644460 14 18337120029000942353
12725867 57 18200032824523316118
14004458 79 17689731761469314444
14344429 50 18260265218106864899
14648413 74 18410862096027162219
14817 1 16233390565797000234
15906896 17 17471574807654990538
16945 1 18043506469663062602
17134986 127 18196376046238688620
18186145 218 18335136458838371443
20339313 130 18341333288675572683
20539784 86 17821995528125545059
20559304 39 18131630071671323545
20645477 70 18409727374863758807
20671657 1 18342174513775967245
20871998 22 18197775492712807570
21503847 285 18267597823162345089
21524375 3 17975687612919346412
2255824 54 18410856542808619215
23380061 81 18343306959571723683
2748010 2 17979896247183120700
298252 57 18051979413625270584
3060560 45 18202006538105331390
31174 14 18113889455904735957
430814 3 17975964685781191584
5283268 108 18266741286160849977
57262259 84 17266119605121798718
7364860 26 18413390951174546997
81228 2 17763745386376667976
81539 233 18188491405506369717

> <PUBCHEM_SHAPE_MULTIPOLES>
291.09
7.06
2.87
1.13
15.72
1.81
-0.09
0.13
-0.76
-3.53
0.85
-0.89
-0.47
-0.25

> <PUBCHEM_SHAPE_SELFOVERLAP>
572.971

> <PUBCHEM_SHAPE_VOLUME>
175.8

> <PUBCHEM_COORDINATE_TYPE>
2
5
10

$$$$
