10956572
  -OEChem-01082403233D

 37 38  0     1  0  0  0  0  0999 V2000
    1.4835   -0.5171    1.2512 O   0  0  0  0  0  0  0  0  0  0  0  0
   -0.3331    0.8052    0.4873 O   0  0  0  0  0  0  0  0  0  0  0  0
    3.3074    1.9813   -1.5144 O   0  0  0  0  0  0  0  0  0  0  0  0
    2.9964   -0.8629   -2.0773 O   0  0  0  0  0  0  0  0  0  0  0  0
    3.0505    1.8920    1.2396 O   0  0  0  0  0  0  0  0  0  0  0  0
    1.3564   -3.2369    1.0167 O   0  0  0  0  0  0  0  0  0  0  0  0
    2.2997    1.1517   -0.9423 C   0  0  1  0  0  0  0  0  0  0  0  0
    2.8122   -0.2815   -0.7892 C   0  0  1  0  0  0  0  0  0  0  0  0
    1.8955    1.7318    0.4141 C   0  0  1  0  0  0  0  0  0  0  0  0
    1.7967   -1.1230   -0.0057 C   0  0  1  0  0  0  0  0  0  0  0  0
    0.9301    0.7991    1.1438 C   0  0  2  0  0  0  0  0  0  0  0  0
    2.3347   -2.5211    0.2853 C   0  0  0  0  0  0  0  0  0  0  0  0
   -1.2605   -0.0520    1.1373 C   0  0  0  0  0  0  0  0  0  0  0  0
   -2.5685   -0.0047    0.4037 C   0  0  0  0  0  0  0  0  0  0  0  0
   -3.5276    0.9347    0.7660 C   0  0  0  0  0  0  0  0  0  0  0  0
   -2.8102   -0.9007   -0.6316 C   0  0  0  0  0  0  0  0  0  0  0  0
   -4.7438    0.9784    0.0843 C   0  0  0  0  0  0  0  0  0  0  0  0
   -4.0263   -0.8570   -1.3134 C   0  0  0  0  0  0  0  0  0  0  0  0
   -4.9931    0.0826   -0.9554 C   0  0  0  0  0  0  0  0  0  0  0  0
    1.4473    1.1703   -1.6316 H   0  0  0  0  0  0  0  0  0  0  0  0
    3.7866   -0.2701   -0.2849 H   0  0  0  0  0  0  0  0  0  0  0  0
    1.4474    2.7228    0.2771 H   0  0  0  0  0  0  0  0  0  0  0  0
    0.8696   -1.2383   -0.5826 H   0  0  0  0  0  0  0  0  0  0  0  0
    0.7941    1.1646    2.1691 H   0  0  0  0  0  0  0  0  0  0  0  0
    3.2397   -2.4702    0.8997 H   0  0  0  0  0  0  0  0  0  0  0  0
    2.5510   -3.0743   -0.6329 H   0  0  0  0  0  0  0  0  0  0  0  0
    4.1264    1.8600   -1.0052 H   0  0  0  0  0  0  0  0  0  0  0  0
    3.5357   -1.6638   -1.9682 H   0  0  0  0  0  0  0  0  0  0  0  0
    3.6012    2.5858    0.8392 H   0  0  0  0  0  0  0  0  0  0  0  0
   -1.4018    0.2695    2.1770 H   0  0  0  0  0  0  0  0  0  0  0  0
   -0.8987   -1.0865    1.1633 H   0  0  0  0  0  0  0  0  0  0  0  0
    1.7212   -4.1200    1.1967 H   0  0  0  0  0  0  0  0  0  0  0  0
   -3.3431    1.6386    1.5728 H   0  0  0  0  0  0  0  0  0  0  0  0
   -2.0630   -1.6350   -0.9202 H   0  0  0  0  0  0  0  0  0  0  0  0
   -5.4964    1.7104    0.3625 H   0  0  0  0  0  0  0  0  0  0  0  0
   -4.2201   -1.5540   -2.1234 H   0  0  0  0  0  0  0  0  0  0  0  0
   -5.9398    0.1170   -1.4865 H   0  0  0  0  0  0  0  0  0  0  0  0
  1 10  1  0  0  0  0
  1 11  1  0  0  0  0
  2 11  1  0  0  0  0
  2 13  1  0  0  0  0
  3  7  1  0  0  0  0
  3 27  1  0  0  0  0
  4  8  1  0  0  0  0
  4 28  1  0  0  0  0
  5  9  1  0  0  0  0
  5 29  1  0  0  0  0
  6 12  1  0  0  0  0
  6 32  1  0  0  0  0
  7  8  1  0  0  0  0
  7  9  1  0  0  0  0
  7 20  1  0  0  0  0
  8 10  1  0  0  0  0
  8 21  1  0  0  0  0
  9 11  1  0  0  0  0
  9 22  1  0  0  0  0
 10 12  1  0  0  0  0
 10 23  1  0  0  0  0
 11 24  1  0  0  0  0
 12 25  1  0  0  0  0
 12 26  1  0  0  0  0
 13 14  1  0  0  0  0
 13 30  1  0  0  0  0
 13 31  1  0  0  0  0
 14 15  2  0  0  0  0
 14 16  1  0  0  0  0
 15 17  1  0  0  0  0
 15 33  1  0  0  0  0
 16 18  2  0  0  0  0
 16 34  1  0  0  0  0
 17 19  2  0  0  0  0
 17 35  1  0  0  0  0
 18 19  1  0  0  0  0
 18 36  1  0  0  0  0
 19 37  1  0  0  0  0
M  END
> <PUBCHEM_COMPOUND_CID>
10956572

> <PUBCHEM_CONFORMER_RMSD>
0.8

> <PUBCHEM_CONFORMER_DIVERSEORDER>
1
9
7
8
5
6
3
4
2
10

> <PUBCHEM_MMFF94_PARTIAL_CHARGES>
28
1 -0.56
10 0.28
11 0.56
12 0.28
13 0.42
14 -0.14
15 -0.15
16 -0.15
17 -0.15
18 -0.15
19 -0.15
2 -0.56
27 0.4
28 0.4
29 0.4
3 -0.68
32 0.4
33 0.15
34 0.15
35 0.15
36 0.15
37 0.15
4 -0.68
5 -0.68
6 -0.68
7 0.28
8 0.28
9 0.28

> <PUBCHEM_EFFECTIVE_ROTOR_COUNT>
5.2

> <PUBCHEM_PHARMACOPHORE_FEATURES>
12
1 1 acceptor
1 2 acceptor
1 3 acceptor
1 3 donor
1 4 acceptor
1 4 donor
1 5 acceptor
1 5 donor
1 6 acceptor
1 6 donor
6 1 7 8 9 10 11 rings
6 14 15 16 17 18 19 rings

> <PUBCHEM_HEAVY_ATOM_COUNT>
19

> <PUBCHEM_ATOM_DEF_STEREO_COUNT>
5

> <PUBCHEM_ATOM_UDEF_STEREO_COUNT>
0

> <PUBCHEM_BOND_DEF_STEREO_COUNT>
0

> <PUBCHEM_BOND_UDEF_STEREO_COUNT>
0

> <PUBCHEM_ISOTOPIC_ATOM_COUNT>
0

> <PUBCHEM_COMPONENT_COUNT>
1

> <PUBCHEM_CACTVS_TAUTO_COUNT>
1

> <PUBCHEM_CONFORMER_ID>
00A72F1C00000001

> <PUBCHEM_MMFF94_ENERGY>
51.965

> <PUBCHEM_FEATURE_SELFOVERLAP>
60.956

> <PUBCHEM_SHAPE_FINGERPRINT>
10498660 4 17313105280630426637
12616999 72 18334852861672958979
12707595 3 15554445227953149633
12730499 353 18187097169317944475
13134695 92 17458889462932548554
15210252 30 17822019713060951085
16752209 62 17060061376943412369
18186145 218 17531245020331839915
19862831 5 18060425720173525449
20645477 70 17988922280017043879
20715895 44 7852485006018175183
21054139 6 18055615455354229359
21452121 99 17905605858857172282
22393880 68 18344147003271087327
2255824 54 18410011018124019538
23419403 2 17537116365369524962
23598291 2 18201450120876320617
238 59 18335149673767407043
251288 83 10951757582475107077
3060560 45 18259989296844309798
3082319 5 18272931631182775641
5281201 14 17749949947612135007
543358 83 18270405983964199137
633830 44 17894908474323894657
7808743 9 14419286367709877726
8988823 20 11599710754592055017
9709674 26 17988357191307299535

> <PUBCHEM_SHAPE_MULTIPOLES>
355.8
8.78
2.33
1.51
10.06
1.22
-0.38
-1.12
-3.03
-2.72
0.47
-0.79
0.01
-0.84

> <PUBCHEM_SHAPE_SELFOVERLAP>
739.36

> <PUBCHEM_SHAPE_VOLUME>
199.4

> <PUBCHEM_COORDINATE_TYPE>
2
5
10

$$$$
