11161970
  -OEChem-01082403233D

 37 38  0     1  0  0  0  0  0999 V2000
    0.4337    2.1190   -0.3533 S   0  0  0  0  0  0  0  0  0  0  0  0
   -0.7777   -0.2758   -0.4578 O   0  0  0  0  0  0  0  0  0  0  0  0
   -4.5690    1.0915    0.4987 O   0  0  0  0  0  0  0  0  0  0  0  0
   -3.9336   -1.7540    0.6958 O   0  0  0  0  0  0  0  0  0  0  0  0
   -2.5303    1.8279   -1.2161 O   0  0  0  0  0  0  0  0  0  0  0  0
   -0.0867   -2.9179   -0.6450 O   0  0  0  0  0  0  0  0  0  0  0  0
   -3.2603    0.5677    0.7080 C   0  0  1  0  0  0  0  0  0  0  0  0
   -3.1166   -0.7970    0.0267 C   0  0  1  0  0  0  0  0  0  0  0  0
   -2.2348    1.5645    0.1589 C   0  0  1  0  0  0  0  0  0  0  0  0
   -1.6566   -1.2689    0.0794 C   0  0  1  0  0  0  0  0  0  0  0  0
   -0.8316    0.9586    0.2645 C   0  0  2  0  0  0  0  0  0  0  0  0
   -1.4508   -2.5470   -0.7277 C   0  0  0  0  0  0  0  0  0  0  0  0
    1.9261    1.1657   -0.1086 C   0  0  0  0  0  0  0  0  0  0  0  0
    2.2758    0.7445    1.1712 C   0  0  0  0  0  0  0  0  0  0  0  0
    2.7314    0.8491   -1.1989 C   0  0  0  0  0  0  0  0  0  0  0  0
    3.4402    0.0005    1.3624 C   0  0  0  0  0  0  0  0  0  0  0  0
    3.8958    0.1051   -1.0079 C   0  0  0  0  0  0  0  0  0  0  0  0
    4.2502   -0.3191    0.2727 C   0  0  0  0  0  0  0  0  0  0  0  0
    5.4949   -1.1146    0.4770 C   0  0  0  0  0  0  0  0  0  0  0  0
   -3.1327    0.4494    1.7913 H   0  0  0  0  0  0  0  0  0  0  0  0
   -3.4651   -0.7326   -1.0115 H   0  0  0  0  0  0  0  0  0  0  0  0
   -2.3049    2.5159    0.6993 H   0  0  0  0  0  0  0  0  0  0  0  0
   -1.3523   -1.4719    1.1153 H   0  0  0  0  0  0  0  0  0  0  0  0
   -0.6075    0.7599    1.3193 H   0  0  0  0  0  0  0  0  0  0  0  0
   -1.6914   -2.3952   -1.7852 H   0  0  0  0  0  0  0  0  0  0  0  0
   -2.0575   -3.3716   -0.3430 H   0  0  0  0  0  0  0  0  0  0  0  0
   -4.6189    1.9478    0.9568 H   0  0  0  0  0  0  0  0  0  0  0  0
   -4.8461   -1.4179    0.6807 H   0  0  0  0  0  0  0  0  0  0  0  0
   -3.4403    2.1686   -1.2564 H   0  0  0  0  0  0  0  0  0  0  0  0
    0.4420   -2.1738   -0.9806 H   0  0  0  0  0  0  0  0  0  0  0  0
    1.6656    0.9895    2.0366 H   0  0  0  0  0  0  0  0  0  0  0  0
    2.4699    1.1703   -2.2040 H   0  0  0  0  0  0  0  0  0  0  0  0
    3.7058   -0.3241    2.3650 H   0  0  0  0  0  0  0  0  0  0  0  0
    4.5176   -0.1394   -1.8650 H   0  0  0  0  0  0  0  0  0  0  0  0
    5.2761   -2.1834    0.3894 H   0  0  0  0  0  0  0  0  0  0  0  0
    6.2585   -0.8508   -0.2628 H   0  0  0  0  0  0  0  0  0  0  0  0
    5.9277   -0.9247    1.4651 H   0  0  0  0  0  0  0  0  0  0  0  0
  1 11  1  0  0  0  0
  1 13  1  0  0  0  0
  2 10  1  0  0  0  0
  2 11  1  0  0  0  0
  3  7  1  0  0  0  0
  3 27  1  0  0  0  0
  4  8  1  0  0  0  0
  4 28  1  0  0  0  0
  5  9  1  0  0  0  0
  5 29  1  0  0  0  0
  6 12  1  0  0  0  0
  6 30  1  0  0  0  0
  7  8  1  0  0  0  0
  7  9  1  0  0  0  0
  7 20  1  0  0  0  0
  8 10  1  0  0  0  0
  8 21  1  0  0  0  0
  9 11  1  0  0  0  0
  9 22  1  0  0  0  0
 10 12  1  0  0  0  0
 10 23  1  0  0  0  0
 11 24  1  0  0  0  0
 12 25  1  0  0  0  0
 12 26  1  0  0  0  0
 13 14  2  0  0  0  0
 13 15  1  0  0  0  0
 14 16  1  0  0  0  0
 14 31  1  0  0  0  0
 15 17  2  0  0  0  0
 15 32  1  0  0  0  0
 16 18  2  0  0  0  0
 16 33  1  0  0  0  0
 17 18  1  0  0  0  0
 17 34  1  0  0  0  0
 18 19  1  0  0  0  0
 19 35  1  0  0  0  0
 19 36  1  0  0  0  0
 19 37  1  0  0  0  0
M  END
> <PUBCHEM_COMPOUND_CID>
11161970

> <PUBCHEM_CONFORMER_RMSD>
0.6

> <PUBCHEM_CONFORMER_DIVERSEORDER>
1
2
4
12
8
9
3
10
7
5
6
11

> <PUBCHEM_MMFF94_PARTIAL_CHARGES>
27
1 -0.33
10 0.28
11 0.51
12 0.28
13 0.1
14 -0.15
15 -0.15
16 -0.15
17 -0.15
18 -0.14
19 0.14
2 -0.56
27 0.4
28 0.4
29 0.4
3 -0.68
30 0.4
31 0.15
32 0.15
33 0.15
34 0.15
4 -0.68
5 -0.68
6 -0.68
7 0.28
8 0.28
9 0.28

> <PUBCHEM_EFFECTIVE_ROTOR_COUNT>
4.2

> <PUBCHEM_PHARMACOPHORE_FEATURES>
11
1 2 acceptor
1 3 acceptor
1 3 donor
1 4 acceptor
1 4 donor
1 5 acceptor
1 5 donor
1 6 acceptor
1 6 donor
6 13 14 15 16 17 18 rings
6 2 7 8 9 10 11 rings

> <PUBCHEM_HEAVY_ATOM_COUNT>
19

> <PUBCHEM_ATOM_DEF_STEREO_COUNT>
5

> <PUBCHEM_ATOM_UDEF_STEREO_COUNT>
0

> <PUBCHEM_BOND_DEF_STEREO_COUNT>
0

> <PUBCHEM_BOND_UDEF_STEREO_COUNT>
0

> <PUBCHEM_ISOTOPIC_ATOM_COUNT>
0

> <PUBCHEM_COMPONENT_COUNT>
1

> <PUBCHEM_CACTVS_TAUTO_COUNT>
1

> <PUBCHEM_CONFORMER_ID>
00AA517200000001

> <PUBCHEM_MMFF94_ENERGY>
51.1702

> <PUBCHEM_FEATURE_SELFOVERLAP>
55.844

> <PUBCHEM_SHAPE_FINGERPRINT>
10062212 137 18408603686432634859
10366900 7 16988844990736657432
12236239 1 17894354363001861004
12346177 29 18130496522195579231
12507557 5 13614226097257235896
12553582 1 18266176321656458430
12592029 89 18336557018802083883
12633257 1 17774734163303869698
13583140 156 15123501532155041591
13862211 1 18269836579308506271
14178342 30 18199483081673678641
14251751 93 18113896009808629608
15006816 218 18270404871488931630
15042514 8 18338519754780285067
15196674 1 18409732893274300448
15375358 24 17489869336869017568
16752209 62 18336529591103858591
17804303 29 18342741840153571656
17859628 97 18408604729793586163
1813 80 17531248319162343334
19422 9 18040721393629994060
20261772 1 18409735079307152810
20291156 8 18260546762040286176
20600515 1 18202289069918978688
21634736 98 18115876363858717580
22646028 28 18187081763159412136
23184049 29 18053376879781622214
23402539 116 18131060507326211669
23559900 14 18060150846936439844
23598291 2 17749396974709922212
465052 167 17969238861764453009
5104073 3 18340214088707027865
5385378 56 18055365639261978777
559249 180 18115017486194550186
58051976 100 18187364324362116909
58807428 26 18270696285373185299
59755656 215 18267584615831714245
602551 16 18342735230879170690
74978 22 18340204214624718772
81228 2 17981029027680448859
90525 40 18334010571019741700

> <PUBCHEM_SHAPE_MULTIPOLES>
365.51
9.21
2.47
1.12
4.92
1.24
0
1.62
-1.76
-1.71
0.59
0.6
-0.11
-0.24

> <PUBCHEM_SHAPE_SELFOVERLAP>
744.721

> <PUBCHEM_SHAPE_VOLUME>
212.5

> <PUBCHEM_COORDINATE_TYPE>
2
5
10

$$$$
