132555975
  -OEChem-01082403233D

 34 35  0     1  0  0  0  0  0999 V2000
    0.9737    0.5068    2.3799 F   0  0  0  0  0  0  0  0  0  0  0  0
    1.5231    1.2276   -2.2764 F   0  0  0  0  0  0  0  0  0  0  0  0
    3.9718    0.0279   -2.1693 F   0  0  0  0  0  0  0  0  0  0  0  0
    3.4234   -0.6918    2.4792 F   0  0  0  0  0  0  0  0  0  0  0  0
    4.9245   -0.9325    0.2066 F   0  0  0  0  0  0  0  0  0  0  0  0
   -1.2389   -0.4691   -0.4340 O   0  0  0  0  0  0  0  0  0  0  0  0
   -0.0103    1.4834   -0.0014 O   0  0  0  0  0  0  0  0  0  0  0  0
   -4.8084    1.4420    0.4294 O   0  0  0  0  0  0  0  0  0  0  0  0
   -4.6776   -1.4441    0.4160 O   0  0  0  0  0  0  0  0  0  0  0  0
   -2.5247    1.9628   -1.0850 O   0  0  0  0  0  0  0  0  0  0  0  0
   -1.0038   -3.1710   -0.8158 O   0  0  0  0  0  0  0  0  0  0  0  0
   -3.6127    0.7060    0.6721 C   0  0  1  0  0  0  0  0  0  0  0  0
   -3.6585   -0.6037   -0.1194 C   0  0  1  0  0  0  0  0  0  0  0  0
   -2.3940    1.5389    0.2756 C   0  0  1  0  0  0  0  0  0  0  0  0
   -2.3092   -1.3304   -0.0323 C   0  0  1  0  0  0  0  0  0  0  0  0
   -1.1271    0.6919    0.3924 C   0  0  1  0  0  0  0  0  0  0  0  0
   -2.2744   -2.5581   -0.9368 C   0  0  0  0  0  0  0  0  0  0  0  0
    1.2186    0.8818    0.0505 C   0  0  0  0  0  0  0  0  0  0  0  0
    1.7045    0.3915    1.2625 C   0  0  0  0  0  0  0  0  0  0  0  0
    1.9846    0.7592   -1.1089 C   0  0  0  0  0  0  0  0  0  0  0  0
    3.2365    0.1463   -1.0561 C   0  0  0  0  0  0  0  0  0  0  0  0
    2.9565   -0.2213    1.3153 C   0  0  0  0  0  0  0  0  0  0  0  0
    3.7224   -0.3440    0.1559 C   0  0  0  0  0  0  0  0  0  0  0  0
   -3.5850    0.4872    1.7467 H   0  0  0  0  0  0  0  0  0  0  0  0
   -3.9270   -0.3993   -1.1624 H   0  0  0  0  0  0  0  0  0  0  0  0
   -2.3248    2.4506    0.8780 H   0  0  0  0  0  0  0  0  0  0  0  0
   -2.1113   -1.6639    0.9956 H   0  0  0  0  0  0  0  0  0  0  0  0
   -1.0184    0.3809    1.4376 H   0  0  0  0  0  0  0  0  0  0  0  0
   -2.4077   -2.2725   -1.9856 H   0  0  0  0  0  0  0  0  0  0  0  0
   -3.0443   -3.2841   -0.6587 H   0  0  0  0  0  0  0  0  0  0  0  0
   -4.7483    2.2714    0.9336 H   0  0  0  0  0  0  0  0  0  0  0  0
   -4.4511   -1.6395    1.3413 H   0  0  0  0  0  0  0  0  0  0  0  0
   -2.3931    1.1905   -1.6604 H   0  0  0  0  0  0  0  0  0  0  0  0
   -1.0019   -3.9462   -1.4028 H   0  0  0  0  0  0  0  0  0  0  0  0
  1 19  1  0  0  0  0
  2 20  1  0  0  0  0
  3 21  1  0  0  0  0
  4 22  1  0  0  0  0
  5 23  1  0  0  0  0
  6 15  1  0  0  0  0
  6 16  1  0  0  0  0
  7 16  1  0  0  0  0
  7 18  1  0  0  0  0
  8 12  1  0  0  0  0
  8 31  1  0  0  0  0
  9 13  1  0  0  0  0
  9 32  1  0  0  0  0
 10 14  1  0  0  0  0
 10 33  1  0  0  0  0
 11 17  1  0  0  0  0
 11 34  1  0  0  0  0
 12 13  1  0  0  0  0
 12 14  1  0  0  0  0
 12 24  1  0  0  0  0
 13 15  1  0  0  0  0
 13 25  1  0  0  0  0
 14 16  1  0  0  0  0
 14 26  1  0  0  0  0
 15 17  1  0  0  0  0
 15 27  1  0  0  0  0
 16 28  1  0  0  0  0
 17 29  1  0  0  0  0
 17 30  1  0  0  0  0
 18 19  2  0  0  0  0
 18 20  1  0  0  0  0
 19 22  1  0  0  0  0
 20 21  2  0  0  0  0
 21 23  1  0  0  0  0
 22 23  2  0  0  0  0
M  END
> <PUBCHEM_COMPOUND_CID>
132555975

> <PUBCHEM_CONFORMER_RMSD>
0.8

> <PUBCHEM_CONFORMER_DIVERSEORDER>
1
10
16
7
5
4
6
19
11
21
17
9
13
18
3
15
14
8
2
20
12

> <PUBCHEM_MMFF94_PARTIAL_CHARGES>
27
1 -0.19
10 -0.68
11 -0.68
12 0.28
13 0.28
14 0.28
15 0.28
16 0.56
17 0.28
18 0.08
19 0.19
2 -0.19
20 0.19
21 0.19
22 0.19
23 0.19
3 -0.19
31 0.4
32 0.4
33 0.4
34 0.4
4 -0.19
5 -0.19
6 -0.56
7 -0.36
8 -0.68
9 -0.68

> <PUBCHEM_EFFECTIVE_ROTOR_COUNT>
4.2

> <PUBCHEM_PHARMACOPHORE_FEATURES>
12
1 10 acceptor
1 10 donor
1 11 acceptor
1 11 donor
1 6 acceptor
1 7 acceptor
1 8 acceptor
1 8 donor
1 9 acceptor
1 9 donor
6 18 19 20 21 22 23 rings
6 6 12 13 14 15 16 rings

> <PUBCHEM_HEAVY_ATOM_COUNT>
23

> <PUBCHEM_ATOM_DEF_STEREO_COUNT>
5

> <PUBCHEM_ATOM_UDEF_STEREO_COUNT>
0

> <PUBCHEM_BOND_DEF_STEREO_COUNT>
0

> <PUBCHEM_BOND_UDEF_STEREO_COUNT>
0

> <PUBCHEM_ISOTOPIC_ATOM_COUNT>
0

> <PUBCHEM_COMPONENT_COUNT>
1

> <PUBCHEM_CACTVS_TAUTO_COUNT>
1

> <PUBCHEM_CONFORMER_ID>
07E6A4C700000001

> <PUBCHEM_MMFF94_ENERGY>
59.4258

> <PUBCHEM_FEATURE_SELFOVERLAP>
60.965

> <PUBCHEM_SHAPE_FINGERPRINT>
10366900 7 16630532834077747024
11471102 22 15841834452061102080
12236239 1 17967818227837133400
12346177 29 18060127778434711567
12403259 327 17845066533714812042
12553582 1 18338231686553813519
12633257 1 17417816200712075547
14115302 16 18272098192341364300
14251751 93 18041278755720037877
14386348 63 17489874838511120718
15375358 24 16988844964486617052
16752209 62 18337376211094633695
17804303 29 18273496788512055889
1813 80 17459740424956327882
19049666 15 17131000762670146513
19422 9 17676486125003998497
19862831 5 17167859776888474169
200 152 16877660162764040081
20600515 1 18131346401687347688
20645476 183 17749399203861044075
23184049 29 18055063517744369071
23557571 272 18130226068289884696
23559900 14 17989496208160269812
23598291 2 17749390338631820300
238 59 15069716756219400794
465052 167 18115323292593801987
474 4 17243028014239975284
5385378 56 17984715420260331545
59755656 215 18202283585672529031
602551 16 18272083920465687618
77492 1 17967251983548883024
81228 2 17983562285618114175
90525 40 18113894910339154429
9709674 26 17560514122552263231

> <PUBCHEM_SHAPE_MULTIPOLES>
401.74
8.73
2.13
1.74
0.11
1.59
0.1
0.97
0.64
2.53
-0.43
-2.27
-0.3
-0.18

> <PUBCHEM_SHAPE_SELFOVERLAP>
858.807

> <PUBCHEM_SHAPE_VOLUME>
221.1

> <PUBCHEM_COORDINATE_TYPE>
2
5
10

$$$$
