18396036
  -OEChem-01082403233D

 38 39  0     1  0  0  0  0  0999 V2000
    1.2319   -0.7248    0.8254 O   0  0  0  0  0  0  0  0  0  0  0  0
    4.2267    1.9023   -0.3348 O   0  0  0  0  0  0  0  0  0  0  0  0
    4.1618   -0.8165   -1.3868 O   0  0  0  0  0  0  0  0  0  0  0  0
    0.0459    0.8377   -0.5104 O   0  0  0  0  0  0  0  0  0  0  0  0
    2.6631    1.5162    1.9157 O   0  0  0  0  0  0  0  0  0  0  0  0
    1.1712   -3.3758    0.1639 O   0  0  0  0  0  0  0  0  0  0  0  0
   -5.3984    0.0783   -0.0049 O   0  0  0  0  0  0  0  0  0  0  0  0
    3.0490    1.1071   -0.4415 C   0  0  1  0  0  0  0  0  0  0  0  0
    3.3890   -0.3750   -0.2737 C   0  0  1  0  0  0  0  0  0  0  0  0
    2.0507    1.5593    0.6256 C   0  0  1  0  0  0  0  0  0  0  0  0
    2.1017   -1.2060   -0.2027 C   0  0  1  0  0  0  0  0  0  0  0  0
    0.8310    0.6399    0.6606 C   0  0  2  0  0  0  0  0  0  0  0  0
    2.3980   -2.6717    0.1019 C   0  0  0  0  0  0  0  0  0  0  0  0
   -1.3049    0.6492   -0.3853 C   0  0  0  0  0  0  0  0  0  0  0  0
   -1.8020   -0.5918    0.0129 C   0  0  0  0  0  0  0  0  0  0  0  0
   -2.1834    1.6983   -0.6556 C   0  0  0  0  0  0  0  0  0  0  0  0
   -3.1776   -0.7836    0.1408 C   0  0  0  0  0  0  0  0  0  0  0  0
   -3.5592    1.5065   -0.5278 C   0  0  0  0  0  0  0  0  0  0  0  0
   -4.0562    0.2655   -0.1297 C   0  0  0  0  0  0  0  0  0  0  0  0
   -5.8383   -1.2153    0.4063 C   0  0  0  0  0  0  0  0  0  0  0  0
    2.6380    1.2793   -1.4439 H   0  0  0  0  0  0  0  0  0  0  0  0
    3.9994   -0.5162    0.6260 H   0  0  0  0  0  0  0  0  0  0  0  0
    1.7589    2.5985    0.4344 H   0  0  0  0  0  0  0  0  0  0  0  0
    1.5606   -1.1677   -1.1577 H   0  0  0  0  0  0  0  0  0  0  0  0
    0.2376    0.8920    1.5499 H   0  0  0  0  0  0  0  0  0  0  0  0
    2.8908   -2.7750    1.0744 H   0  0  0  0  0  0  0  0  0  0  0  0
    3.0255   -3.1244   -0.6716 H   0  0  0  0  0  0  0  0  0  0  0  0
    3.9653    2.8314   -0.4534 H   0  0  0  0  0  0  0  0  0  0  0  0
    3.6296   -0.6928   -2.1912 H   0  0  0  0  0  0  0  0  0  0  0  0
    2.0218    1.8660    2.5576 H   0  0  0  0  0  0  0  0  0  0  0  0
    1.3824   -4.3037    0.3631 H   0  0  0  0  0  0  0  0  0  0  0  0
   -1.1383   -1.4272    0.2118 H   0  0  0  0  0  0  0  0  0  0  0  0
   -1.8016    2.6672   -0.9656 H   0  0  0  0  0  0  0  0  0  0  0  0
   -3.4958   -1.7733    0.4504 H   0  0  0  0  0  0  0  0  0  0  0  0
   -4.2387    2.3275   -0.7396 H   0  0  0  0  0  0  0  0  0  0  0  0
   -6.9318   -1.1847    0.4539 H   0  0  0  0  0  0  0  0  0  0  0  0
   -5.4812   -1.4609    1.4122 H   0  0  0  0  0  0  0  0  0  0  0  0
   -5.5717   -1.9831   -0.3279 H   0  0  0  0  0  0  0  0  0  0  0  0
  1 11  1  0  0  0  0
  1 12  1  0  0  0  0
  2  8  1  0  0  0  0
  2 28  1  0  0  0  0
  3  9  1  0  0  0  0
  3 29  1  0  0  0  0
  4 12  1  0  0  0  0
  4 14  1  0  0  0  0
  5 10  1  0  0  0  0
  5 30  1  0  0  0  0
  6 13  1  0  0  0  0
  6 31  1  0  0  0  0
  7 19  1  0  0  0  0
  7 20  1  0  0  0  0
  8  9  1  0  0  0  0
  8 10  1  0  0  0  0
  8 21  1  0  0  0  0
  9 11  1  0  0  0  0
  9 22  1  0  0  0  0
 10 12  1  0  0  0  0
 10 23  1  0  0  0  0
 11 13  1  0  0  0  0
 11 24  1  0  0  0  0
 12 25  1  0  0  0  0
 13 26  1  0  0  0  0
 13 27  1  0  0  0  0
 14 15  2  0  0  0  0
 14 16  1  0  0  0  0
 15 17  1  0  0  0  0
 15 32  1  0  0  0  0
 16 18  2  0  0  0  0
 16 33  1  0  0  0  0
 17 19  2  0  0  0  0
 17 34  1  0  0  0  0
 18 19  1  0  0  0  0
 18 35  1  0  0  0  0
 20 36  1  0  0  0  0
 20 37  1  0  0  0  0
 20 38  1  0  0  0  0
M  END
> <PUBCHEM_COMPOUND_CID>
18396036

> <PUBCHEM_CONFORMER_RMSD>
0.8

> <PUBCHEM_CONFORMER_DIVERSEORDER>
1
13
7
17
16
14
21
3
4
19
11
8
5
10
12
15
18
2
9
20
6

> <PUBCHEM_MMFF94_PARTIAL_CHARGES>
28
1 -0.56
10 0.28
11 0.28
12 0.56
13 0.28
14 0.08
15 -0.15
16 -0.15
17 -0.15
18 -0.15
19 0.08
2 -0.68
20 0.28
28 0.4
29 0.4
3 -0.68
30 0.4
31 0.4
32 0.15
33 0.15
34 0.15
35 0.15
4 -0.36
5 -0.68
6 -0.68
7 -0.36
8 0.28
9 0.28

> <PUBCHEM_EFFECTIVE_ROTOR_COUNT>
5.2

> <PUBCHEM_PHARMACOPHORE_FEATURES>
13
1 1 acceptor
1 2 acceptor
1 2 donor
1 3 acceptor
1 3 donor
1 4 acceptor
1 5 acceptor
1 5 donor
1 6 acceptor
1 6 donor
1 7 acceptor
6 1 8 9 10 11 12 rings
6 14 15 16 17 18 19 rings

> <PUBCHEM_HEAVY_ATOM_COUNT>
20

> <PUBCHEM_ATOM_DEF_STEREO_COUNT>
5

> <PUBCHEM_ATOM_UDEF_STEREO_COUNT>
0

> <PUBCHEM_BOND_DEF_STEREO_COUNT>
0

> <PUBCHEM_BOND_UDEF_STEREO_COUNT>
0

> <PUBCHEM_ISOTOPIC_ATOM_COUNT>
0

> <PUBCHEM_COMPONENT_COUNT>
1

> <PUBCHEM_CACTVS_TAUTO_COUNT>
1

> <PUBCHEM_CONFORMER_ID>
0118B38400000001

> <PUBCHEM_MMFF94_ENERGY>
72.2166

> <PUBCHEM_FEATURE_SELFOVERLAP>
66.033

> <PUBCHEM_SHAPE_FINGERPRINT>
10366900 7 18334585637302856027
10498660 4 17749662996457683341
10616163 171 18408606993610622567
11615757 297 17917714582613232369
11961588 58 17314815047276587830
12107183 9 17693948388904798529
12596602 18 17417820603744663523
12616999 72 18187650193290552062
12730499 353 18337117846820160251
128620 24 17458341953122916213
13167823 11 17988639731662727111
13533116 47 18343863291291784803
13675066 3 12031781488041352357
13911882 115 18261969538745368939
14252887 29 18261114088860612601
14617045 38 18337120016179733479
15196674 1 18335701611888333085
15375358 24 18040998466433875691
15536298 74 18411416207148430169
15635459 17 18335706013903127755
17834074 16 18410293592796649535
1813 80 17022906757432499487
20281475 54 18338517413690305593
20567600 347 17894629253662033722
20645477 70 18201723933457178750
21267235 1 18410302384357516039
221490 88 18335988553826070858
23557571 272 17168142295863946429
23559900 14 18263074431745354149
239999 70 18271813414809077574
2838139 119 16371594565024966806
2871803 45 18408324380166508455
3060560 45 18334015012601488596
3323516 105 18411703162224011054
33824 294 18409448093987874786
4340502 62 18342453790125100336
474 4 16154284947406142268
495365 180 18128793305754307241
5104073 3 18337670820060367145
6442390 28 18267019642716886514
7364860 26 18339636737965450682
77779 3 18409167675910631629
9709674 26 18261115145254177939

> <PUBCHEM_SHAPE_MULTIPOLES>
370.51
10.12
2.51
0.97
10.49
1.66
0.2
0.57
-0.6
-1.87
0.1
-0.74
-0.27
0.9

> <PUBCHEM_SHAPE_SELFOVERLAP>
773.072

> <PUBCHEM_SHAPE_VOLUME>
207.7

> <PUBCHEM_COORDINATE_TYPE>
2
5
10

$$$$
