188977
  -OEChem-01082403233D

 37 38  0     1  0  0  0  0  0999 V2000
    1.2163   -0.8495    0.0563 O   0  0  0  0  0  0  0  0  0  0  0  0
   -0.6396    0.5570   -0.0895 O   0  0  0  0  0  0  0  0  0  0  0  0
    3.7170    2.3158    0.8276 O   0  0  0  0  0  0  0  0  0  0  0  0
    4.8227   -0.2159   -0.0230 O   0  0  0  0  0  0  0  0  0  0  0  0
    1.0916    2.7696   -0.4302 O   0  0  0  0  0  0  0  0  0  0  0  0
    2.0792   -3.4079   -0.4595 O   0  0  0  0  0  0  0  0  0  0  0  0
    3.0206    1.3844   -0.0019 C   0  0  1  0  0  0  0  0  0  0  0  0
    3.4713   -0.0238    0.3867 C   0  0  1  0  0  0  0  0  0  0  0  0
    1.5142    1.5568    0.1928 C   0  0  2  0  0  0  0  0  0  0  0  0
    2.5859   -1.0803   -0.2785 C   0  0  1  0  0  0  0  0  0  0  0  0
    0.7364    0.4000   -0.4347 C   0  0  1  0  0  0  0  0  0  0  0  0
    2.9418   -2.4890    0.1858 C   0  0  0  0  0  0  0  0  0  0  0  0
   -1.4313   -0.4848   -0.6386 C   0  0  0  0  0  0  0  0  0  0  0  0
   -2.8636   -0.2704   -0.2458 C   0  0  0  0  0  0  0  0  0  0  0  0
   -3.3454   -0.8304    0.9322 C   0  0  0  0  0  0  0  0  0  0  0  0
   -3.6958    0.4866   -1.0629 C   0  0  0  0  0  0  0  0  0  0  0  0
   -4.6767   -0.6311    1.2976 C   0  0  0  0  0  0  0  0  0  0  0  0
   -5.0271    0.6859   -0.6973 C   0  0  0  0  0  0  0  0  0  0  0  0
   -5.5175    0.1270    0.4830 C   0  0  0  0  0  0  0  0  0  0  0  0
    3.3052    1.6173   -1.0354 H   0  0  0  0  0  0  0  0  0  0  0  0
    3.4416   -0.1277    1.4783 H   0  0  0  0  0  0  0  0  0  0  0  0
    1.2769    1.6489    1.2594 H   0  0  0  0  0  0  0  0  0  0  0  0
    2.6871   -1.0479   -1.3720 H   0  0  0  0  0  0  0  0  0  0  0  0
    0.8190    0.4282   -1.5298 H   0  0  0  0  0  0  0  0  0  0  0  0
    2.8024   -2.6022    1.2661 H   0  0  0  0  0  0  0  0  0  0  0  0
    3.9736   -2.7499   -0.0659 H   0  0  0  0  0  0  0  0  0  0  0  0
    4.6691    2.1717    0.6913 H   0  0  0  0  0  0  0  0  0  0  0  0
    4.8577   -0.1328   -0.9912 H   0  0  0  0  0  0  0  0  0  0  0  0
    1.2944    2.7077   -1.3793 H   0  0  0  0  0  0  0  0  0  0  0  0
   -1.1004   -1.4651   -0.2746 H   0  0  0  0  0  0  0  0  0  0  0  0
   -1.3385   -0.4925   -1.7320 H   0  0  0  0  0  0  0  0  0  0  0  0
    1.1657   -3.1634   -0.2324 H   0  0  0  0  0  0  0  0  0  0  0  0
   -2.6987   -1.4207    1.5756 H   0  0  0  0  0  0  0  0  0  0  0  0
   -3.3236    0.9282   -1.9831 H   0  0  0  0  0  0  0  0  0  0  0  0
   -5.0585   -1.0655    2.2169 H   0  0  0  0  0  0  0  0  0  0  0  0
   -5.6818    1.2768   -1.3313 H   0  0  0  0  0  0  0  0  0  0  0  0
   -6.5540    0.2826    0.7677 H   0  0  0  0  0  0  0  0  0  0  0  0
  1 10  1  0  0  0  0
  1 11  1  0  0  0  0
  2 11  1  0  0  0  0
  2 13  1  0  0  0  0
  3  7  1  0  0  0  0
  3 27  1  0  0  0  0
  4  8  1  0  0  0  0
  4 28  1  0  0  0  0
  5  9  1  0  0  0  0
  5 29  1  0  0  0  0
  6 12  1  0  0  0  0
  6 32  1  0  0  0  0
  7  8  1  0  0  0  0
  7  9  1  0  0  0  0
  7 20  1  0  0  0  0
  8 10  1  0  0  0  0
  8 21  1  0  0  0  0
  9 11  1  0  0  0  0
  9 22  1  0  0  0  0
 10 12  1  0  0  0  0
 10 23  1  0  0  0  0
 11 24  1  0  0  0  0
 12 25  1  0  0  0  0
 12 26  1  0  0  0  0
 13 14  1  0  0  0  0
 13 30  1  0  0  0  0
 13 31  1  0  0  0  0
 14 15  2  0  0  0  0
 14 16  1  0  0  0  0
 15 17  1  0  0  0  0
 15 33  1  0  0  0  0
 16 18  2  0  0  0  0
 16 34  1  0  0  0  0
 17 19  2  0  0  0  0
 17 35  1  0  0  0  0
 18 19  1  0  0  0  0
 18 36  1  0  0  0  0
 19 37  1  0  0  0  0
M  END
> <PUBCHEM_COMPOUND_CID>
188977

> <PUBCHEM_CONFORMER_RMSD>
0.8

> <PUBCHEM_CONFORMER_DIVERSEORDER>
1
11
15
16
21
4
6
19
20
2
18
8
13
3
12
14
7
9
5
10
17

> <PUBCHEM_MMFF94_PARTIAL_CHARGES>
28
1 -0.56
10 0.28
11 0.56
12 0.28
13 0.42
14 -0.14
15 -0.15
16 -0.15
17 -0.15
18 -0.15
19 -0.15
2 -0.56
27 0.4
28 0.4
29 0.4
3 -0.68
32 0.4
33 0.15
34 0.15
35 0.15
36 0.15
37 0.15
4 -0.68
5 -0.68
6 -0.68
7 0.28
8 0.28
9 0.28

> <PUBCHEM_EFFECTIVE_ROTOR_COUNT>
5.2

> <PUBCHEM_PHARMACOPHORE_FEATURES>
12
1 1 acceptor
1 2 acceptor
1 3 acceptor
1 3 donor
1 4 acceptor
1 4 donor
1 5 acceptor
1 5 donor
1 6 acceptor
1 6 donor
6 1 7 8 9 10 11 rings
6 14 15 16 17 18 19 rings

> <PUBCHEM_HEAVY_ATOM_COUNT>
19

> <PUBCHEM_ATOM_DEF_STEREO_COUNT>
5

> <PUBCHEM_ATOM_UDEF_STEREO_COUNT>
0

> <PUBCHEM_BOND_DEF_STEREO_COUNT>
0

> <PUBCHEM_BOND_UDEF_STEREO_COUNT>
0

> <PUBCHEM_ISOTOPIC_ATOM_COUNT>
0

> <PUBCHEM_COMPONENT_COUNT>
1

> <PUBCHEM_CACTVS_TAUTO_COUNT>
1

> <PUBCHEM_CONFORMER_ID>
0002E23100000001

> <PUBCHEM_MMFF94_ENERGY>
51.0365

> <PUBCHEM_FEATURE_SELFOVERLAP>
60.959

> <PUBCHEM_SHAPE_FINGERPRINT>
10912923 1 17704351074668620735
11089746 13 17418088840819634888
11370993 144 18335709287248209113
114674 6 18261678056263315290
11471102 20 18411978078891181860
11552529 35 18128263483538183683
12107183 9 17695918730831984451
12236239 1 17418092122295714767
12507560 40 18333731325795845477
12596602 18 17346314951157596131
12670546 56 17704349957402280057
13167823 11 18131063866438926423
13533116 47 18342178835019612379
13583140 156 18129096896055448275
13631057 29 17699274783928481095
13675066 3 18186803586870474583
13955234 65 18413103948992034994
14251757 17 18115302276891366049
14252887 29 18333452031976641018
14341114 176 18334020518649666305
14386348 63 18040438780576588371
14790565 3 17903361751257002988
14866123 147 17184468716381228955
15375358 24 18261108586670071531
20645477 70 18410848828941737415
21033650 10 15937822787432923884
21065198 57 18334579049292340225
21065199 12 18334580161641436233
21065201 7 17095240290002294875
2215653 11 18260825952553344655
22289505 5 18335696096638862788
22943178 12 18113897152686674887
23402539 116 13695581148687412239
23557571 272 17385719158452588421
23559900 14 18113339678442042247
239999 70 17967253104798805730
26918003 58 18335420175365887745
33824 294 18410008832339048306
3421961 26 18338516331269305026
345986 75 17844804789432815387
3545911 37 18408887352000772597
5104073 3 18340200911747162283
542803 24 17275389824136936225
602551 16 16515687800895198681
8272917 22 18342460322153315662
9709674 26 18187932815419715523

> <PUBCHEM_SHAPE_MULTIPOLES>
355.8
11.18
2.46
0.94
9.41
0.74
0.08
-0.02
1.6
-3.79
-0.08
0.88
0.01
1.04

> <PUBCHEM_SHAPE_SELFOVERLAP>
737.984

> <PUBCHEM_SHAPE_VOLUME>
200.3

> <PUBCHEM_COORDINATE_TYPE>
2
5
10

$$$$
