2733787
  -OEChem-01082403233D

 48 50  0     1  0  0  0  0  0999 V2000
    1.5898   -1.3586    0.5866 O   0  0  0  0  0  0  0  0  0  0  0  0
    0.7233    0.7812    0.8915 O   0  0  0  0  0  0  0  0  0  0  0  0
    5.2894    0.1330   -0.3774 O   0  0  0  0  0  0  0  0  0  0  0  0
    4.6401   -2.5959   -1.0388 O   0  0  0  0  0  0  0  0  0  0  0  0
    0.8367   -3.9844    0.3181 O   0  0  0  0  0  0  0  0  0  0  0  0
    2.4809    3.1268    1.3747 O   0  0  0  0  0  0  0  0  0  0  0  0
   -3.4087   -1.5158    0.2480 O   0  0  0  0  0  0  0  0  0  0  0  0
   -5.3816   -2.6312   -0.0560 O   0  0  0  0  0  0  0  0  0  0  0  0
    2.9562    1.8898   -0.5389 N   0  0  0  0  0  0  0  0  0  0  0  0
    2.9692    0.5773    0.0733 C   0  0  2  0  0  0  0  0  0  0  0  0
    3.9663   -0.3336   -0.6493 C   0  0  2  0  0  0  0  0  0  0  0  0
    3.8468   -1.7843   -0.1768 C   0  0  1  0  0  0  0  0  0  0  0  0
    2.3865   -2.2427   -0.2039 C   0  0  1  0  0  0  0  0  0  0  0  0
    1.5618   -0.0294    0.0691 C   0  0  1  0  0  0  0  0  0  0  0  0
    2.2103   -3.6447    0.3706 C   0  0  0  0  0  0  0  0  0  0  0  0
    2.7120    3.0518    0.1708 C   0  0  0  0  0  0  0  0  0  0  0  0
   -0.6049    0.8162    0.5654 C   0  0  0  0  0  0  0  0  0  0  0  0
   -1.3477   -0.3553    0.5664 C   0  0  0  0  0  0  0  0  0  0  0  0
   -1.2038    2.0263    0.2347 C   0  0  0  0  0  0  0  0  0  0  0  0
    2.7824    4.2760   -0.7022 C   0  0  0  0  0  0  0  0  0  0  0  0
   -2.7014   -0.2969    0.2306 C   0  0  0  0  0  0  0  0  0  0  0  0
   -3.3350    0.9000   -0.1066 C   0  0  0  0  0  0  0  0  0  0  0  0
   -2.5621    2.0689   -0.0999 C   0  0  0  0  0  0  0  0  0  0  0  0
   -4.7640    0.8684   -0.4466 C   0  0  0  0  0  0  0  0  0  0  0  0
   -5.4112   -0.3054   -0.4218 C   0  0  0  0  0  0  0  0  0  0  0  0
   -5.4741    2.1385   -0.8137 C   0  0  0  0  0  0  0  0  0  0  0  0
   -4.7570   -1.5762   -0.0678 C   0  0  0  0  0  0  0  0  0  0  0  0
    3.2939    0.7092    1.1146 H   0  0  0  0  0  0  0  0  0  0  0  0
    3.8318   -0.2810   -1.7368 H   0  0  0  0  0  0  0  0  0  0  0  0
    4.2602   -1.8685    0.8363 H   0  0  0  0  0  0  0  0  0  0  0  0
    1.9958   -2.2453   -1.2306 H   0  0  0  0  0  0  0  0  0  0  0  0
    1.1686   -0.0472   -0.9586 H   0  0  0  0  0  0  0  0  0  0  0  0
    2.5285   -3.6933    1.4173 H   0  0  0  0  0  0  0  0  0  0  0  0
    2.7654   -4.3923   -0.2022 H   0  0  0  0  0  0  0  0  0  0  0  0
    3.0785    1.9480   -1.5461 H   0  0  0  0  0  0  0  0  0  0  0  0
    5.4342    0.0884    0.5832 H   0  0  0  0  0  0  0  0  0  0  0  0
    4.7161   -3.4751   -0.6319 H   0  0  0  0  0  0  0  0  0  0  0  0
    0.3523   -3.3312    0.8511 H   0  0  0  0  0  0  0  0  0  0  0  0
   -0.9075   -1.3079    0.8397 H   0  0  0  0  0  0  0  0  0  0  0  0
   -0.6231    2.9448    0.2330 H   0  0  0  0  0  0  0  0  0  0  0  0
    2.5098    5.1607   -0.1202 H   0  0  0  0  0  0  0  0  0  0  0  0
    3.7997    4.3985   -1.0840 H   0  0  0  0  0  0  0  0  0  0  0  0
    2.0865    4.1775   -1.5402 H   0  0  0  0  0  0  0  0  0  0  0  0
   -2.9941    3.0336   -0.3529 H   0  0  0  0  0  0  0  0  0  0  0  0
   -6.4672   -0.3657   -0.6673 H   0  0  0  0  0  0  0  0  0  0  0  0
   -6.5316    1.9642   -1.0421 H   0  0  0  0  0  0  0  0  0  0  0  0
   -5.0231    2.5935   -1.7020 H   0  0  0  0  0  0  0  0  0  0  0  0
   -5.4368    2.8577    0.0115 H   0  0  0  0  0  0  0  0  0  0  0  0
  1 13  1  0  0  0  0
  1 14  1  0  0  0  0
  2 14  1  0  0  0  0
  2 17  1  0  0  0  0
  3 11  1  0  0  0  0
  3 36  1  0  0  0  0
  4 12  1  0  0  0  0
  4 37  1  0  0  0  0
  5 15  1  0  0  0  0
  5 38  1  0  0  0  0
  6 16  2  0  0  0  0
  7 21  1  0  0  0  0
  7 27  1  0  0  0  0
  8 27  2  0  0  0  0
  9 10  1  0  0  0  0
  9 16  1  0  0  0  0
  9 35  1  0  0  0  0
 10 11  1  0  0  0  0
 10 14  1  0  0  0  0
 10 28  1  0  0  0  0
 11 12  1  0  0  0  0
 11 29  1  0  0  0  0
 12 13  1  0  0  0  0
 12 30  1  0  0  0  0
 13 15  1  0  0  0  0
 13 31  1  0  0  0  0
 14 32  1  0  0  0  0
 15 33  1  0  0  0  0
 15 34  1  0  0  0  0
 16 20  1  0  0  0  0
 17 18  2  0  0  0  0
 17 19  1  0  0  0  0
 18 21  1  0  0  0  0
 18 39  1  0  0  0  0
 19 23  2  0  0  0  0
 19 40  1  0  0  0  0
 20 41  1  0  0  0  0
 20 42  1  0  0  0  0
 20 43  1  0  0  0  0
 21 22  2  0  0  0  0
 22 23  1  0  0  0  0
 22 24  1  0  0  0  0
 23 44  1  0  0  0  0
 24 25  2  0  0  0  0
 24 26  1  0  0  0  0
 25 27  1  0  0  0  0
 25 45  1  0  0  0  0
 26 46  1  0  0  0  0
 26 47  1  0  0  0  0
 26 48  1  0  0  0  0
M  END
> <PUBCHEM_COMPOUND_CID>
2733787

> <PUBCHEM_CONFORMER_RMSD>
0.8

> <PUBCHEM_CONFORMER_DIVERSEORDER>
1
22
109
88
70
80
178
64
68
174
78
148
204
165
200
137
66
187
25
33
173
16
23
24
136
120
129
75
127
106
188
199
115
119
53
140
151
166
147
203
110
114
46
102
94
72
122
59
164
11
153
183
118
58
197
86
50
84
131
123
157
73
125
180
159
105
77
14
108
158
138
15
38
126
36
21
95
35
128
198
31
175
124
81
160
143
146
54
149
135
29
91
61
141
99
55
111
167
142
113
145
134
47
90
52
179
190
191
89
202
43
44
69
39
177
107
192
161
79
67
56
116
169
49
71
201
2
171
34
13
5
17
62
12
117
133
156
152
26
132
170
104
42
193
139
74
93
65
194
51
4
60
7
82
45
8
103
100
98
112
76
28
9
154
184
85
97
41
87
185
20
182
40
101
63
6
83
196
144
10
168
19
32
96
3
162
57
121
37
155
30
130
181
18
172
27
163
150
186
92
195
48
176
189

> <PUBCHEM_MMFF94_PARTIAL_CHARGES>
35
1 -0.56
10 0.3
11 0.28
12 0.28
13 0.28
14 0.56
15 0.28
16 0.57
17 0.08
18 -0.15
19 -0.15
2 -0.36
20 0.06
21 0.08
22 0.03
23 -0.15
24 -0.17
25 -0.14
26 0.14
27 0.71
3 -0.68
35 0.37
36 0.4
37 0.4
38 0.4
39 0.15
4 -0.68
40 0.15
44 0.15
45 0.15
5 -0.68
6 -0.57
7 -0.23
8 -0.57
9 -0.73

> <PUBCHEM_EFFECTIVE_ROTOR_COUNT>
6.2

> <PUBCHEM_PHARMACOPHORE_FEATURES>
14
1 1 acceptor
1 2 acceptor
1 3 acceptor
1 3 donor
1 4 acceptor
1 4 donor
1 5 acceptor
1 5 donor
1 6 acceptor
1 8 acceptor
1 9 donor
6 1 10 11 12 13 14 rings
6 17 18 19 21 22 23 rings
6 7 21 22 24 25 27 rings

> <PUBCHEM_HEAVY_ATOM_COUNT>
27

> <PUBCHEM_ATOM_DEF_STEREO_COUNT>
5

> <PUBCHEM_ATOM_UDEF_STEREO_COUNT>
0

> <PUBCHEM_BOND_DEF_STEREO_COUNT>
0

> <PUBCHEM_BOND_UDEF_STEREO_COUNT>
0

> <PUBCHEM_ISOTOPIC_ATOM_COUNT>
0

> <PUBCHEM_COMPONENT_COUNT>
1

> <PUBCHEM_CACTVS_TAUTO_COUNT>
2

> <PUBCHEM_CONFORMER_ID>
0029B6DB00000001

> <PUBCHEM_MMFF94_ENERGY>
84.0354

> <PUBCHEM_FEATURE_SELFOVERLAP>
71.136

> <PUBCHEM_SHAPE_FINGERPRINT>
10074138 170 17116597465800883768
10616163 171 18412545375700004103
11405975 8 18413109442413416433
12788726 201 17559676119162936713
1361 2 18120091938367674861
15961568 22 17460310173152525957
17492 89 18411419531442996599
17844677 252 18410862075069205893
18681886 176 18411133650204192018
20645477 70 18408882970659435657
21709351 56 18410570703801809668
221490 88 18410579499905296656
22149856 69 18196385929918429211
22393880 68 18334289860211656483
23522609 53 17844553165639679457
23559900 14 18411973637974294593
238 59 18336839675063456570
239999 70 18272374195724853958
3004659 81 18262516974955111347
312423 11 18059587892197505697
314173 41 18268996388382295070
350125 39 18338236067684348812
46194498 28 17894356557455986452
463206 1 18192158091953995258
484989 97 18193008225512673090
6443956 14 18337113371907459796
67856867 119 18336539503814914616
9709674 26 18335706061168691723

> <PUBCHEM_SHAPE_MULTIPOLES>
503.71
11.97
4.73
0.84
9.78
0.22
-0.03
-2.11
3.14
-4.34
0.05
-0.27
0.23
0.68

> <PUBCHEM_SHAPE_SELFOVERLAP>
1072.167

> <PUBCHEM_SHAPE_VOLUME>
277.3

> <PUBCHEM_COORDINATE_TYPE>
2
5
10

$$$$
