49855777
  -OEChem-01082403233D

 40 41  0     1  0  0  0  0  0999 V2000
   -1.5291    0.0372   -1.4494 O   0  0  0  0  0  0  0  0  0  0  0  0
   -0.0898    1.5371   -0.3046 O   0  0  0  0  0  0  0  0  0  0  0  0
   -3.3202    0.3087    2.2836 O   0  0  0  0  0  0  0  0  0  0  0  0
   -2.0093   -2.1601    1.4537 O   0  0  0  0  0  0  0  0  0  0  0  0
   -3.7197    1.4293   -0.2151 O   0  0  0  0  0  0  0  0  0  0  0  0
   -0.5051   -2.2686   -2.4988 O   0  0  0  0  0  0  0  0  0  0  0  0
   -2.2728    0.2368    1.3201 C   0  0  1  0  0  0  0  0  0  0  0  0
   -2.3321   -1.0930    0.5660 C   0  0  1  0  0  0  0  0  0  0  0  0
   -2.4096    1.4152    0.3546 C   0  0  1  0  0  0  0  0  0  0  0  0
   -1.3247   -1.0878   -0.5907 C   0  0  1  0  0  0  0  0  0  0  0  0
   -1.4066    1.3036   -0.7926 C   0  0  2  0  0  0  0  0  0  0  0  0
   -1.4518   -2.3434   -1.4488 C   0  0  0  0  0  0  0  0  0  0  0  0
    0.7975    1.8944   -1.3545 C   0  0  0  0  0  0  0  0  0  0  0  0
    2.1964    2.1214   -0.7919 C   0  0  0  0  0  0  0  0  0  0  0  0
    2.7332    0.9036   -0.0798 C   0  0  0  0  0  0  0  0  0  0  0  0
    2.5010    0.7347    1.2851 C   0  0  0  0  0  0  0  0  0  0  0  0
    3.4616   -0.0529   -0.7869 C   0  0  0  0  0  0  0  0  0  0  0  0
    2.9974   -0.3907    1.9432 C   0  0  0  0  0  0  0  0  0  0  0  0
    3.9579   -1.1783   -0.1291 C   0  0  0  0  0  0  0  0  0  0  0  0
    3.7258   -1.3472    1.2360 C   0  0  0  0  0  0  0  0  0  0  0  0
   -1.3268    0.3052    1.8716 H   0  0  0  0  0  0  0  0  0  0  0  0
   -3.3509   -1.2672    0.2005 H   0  0  0  0  0  0  0  0  0  0  0  0
   -2.2797    2.3541    0.9052 H   0  0  0  0  0  0  0  0  0  0  0  0
   -0.2952   -1.0481   -0.2101 H   0  0  0  0  0  0  0  0  0  0  0  0
   -1.6585    2.0648   -1.5420 H   0  0  0  0  0  0  0  0  0  0  0  0
   -2.4471   -2.4064   -1.9014 H   0  0  0  0  0  0  0  0  0  0  0  0
   -1.2612   -3.2497   -0.8661 H   0  0  0  0  0  0  0  0  0  0  0  0
   -3.2399    1.1630    2.7413 H   0  0  0  0  0  0  0  0  0  0  0  0
   -1.1068   -2.0138    1.7850 H   0  0  0  0  0  0  0  0  0  0  0  0
   -3.7889    2.2220   -0.7740 H   0  0  0  0  0  0  0  0  0  0  0  0
    0.8203    1.0961   -2.1061 H   0  0  0  0  0  0  0  0  0  0  0  0
    0.4517    2.8173   -1.8344 H   0  0  0  0  0  0  0  0  0  0  0  0
    2.8804    2.4153   -1.5972 H   0  0  0  0  0  0  0  0  0  0  0  0
    2.1757    2.9601   -0.0841 H   0  0  0  0  0  0  0  0  0  0  0  0
   -0.6053   -3.0744   -3.0337 H   0  0  0  0  0  0  0  0  0  0  0  0
    1.9347    1.4719    1.8481 H   0  0  0  0  0  0  0  0  0  0  0  0
    3.6470    0.0667   -1.8510 H   0  0  0  0  0  0  0  0  0  0  0  0
    2.8160   -0.5226    3.0058 H   0  0  0  0  0  0  0  0  0  0  0  0
    4.5244   -1.9236   -0.6798 H   0  0  0  0  0  0  0  0  0  0  0  0
    4.1118   -2.2237    1.7480 H   0  0  0  0  0  0  0  0  0  0  0  0
  1 10  1  0  0  0  0
  1 11  1  0  0  0  0
  2 11  1  0  0  0  0
  2 13  1  0  0  0  0
  3  7  1  0  0  0  0
  3 28  1  0  0  0  0
  4  8  1  0  0  0  0
  4 29  1  0  0  0  0
  5  9  1  0  0  0  0
  5 30  1  0  0  0  0
  6 12  1  0  0  0  0
  6 35  1  0  0  0  0
  7  8  1  0  0  0  0
  7  9  1  0  0  0  0
  7 21  1  0  0  0  0
  8 10  1  0  0  0  0
  8 22  1  0  0  0  0
  9 11  1  0  0  0  0
  9 23  1  0  0  0  0
 10 12  1  0  0  0  0
 10 24  1  0  0  0  0
 11 25  1  0  0  0  0
 12 26  1  0  0  0  0
 12 27  1  0  0  0  0
 13 14  1  0  0  0  0
 13 31  1  0  0  0  0
 13 32  1  0  0  0  0
 14 15  1  0  0  0  0
 14 33  1  0  0  0  0
 14 34  1  0  0  0  0
 15 16  2  0  0  0  0
 15 17  1  0  0  0  0
 16 18  1  0  0  0  0
 16 36  1  0  0  0  0
 17 19  2  0  0  0  0
 17 37  1  0  0  0  0
 18 20  2  0  0  0  0
 18 38  1  0  0  0  0
 19 20  1  0  0  0  0
 19 39  1  0  0  0  0
 20 40  1  0  0  0  0
M  END
> <PUBCHEM_COMPOUND_CID>
49855777

> <PUBCHEM_CONFORMER_RMSD>
0.8

> <PUBCHEM_CONFORMER_DIVERSEORDER>
1
6
44
45
29
5
19
43
9
33
28
42
11
24
30
16
17
15
37
31
14
35
12
23
47
36
48
13
2
49
26
4
32
40
27
3
34
22
46
38
10
25
20
39
8
41
21
18
7

> <PUBCHEM_MMFF94_PARTIAL_CHARGES>
29
1 -0.56
10 0.28
11 0.56
12 0.28
13 0.28
14 0.14
15 -0.14
16 -0.15
17 -0.15
18 -0.15
19 -0.15
2 -0.56
20 -0.15
28 0.4
29 0.4
3 -0.68
30 0.4
35 0.4
36 0.15
37 0.15
38 0.15
39 0.15
4 -0.68
40 0.15
5 -0.68
6 -0.68
7 0.28
8 0.28
9 0.28

> <PUBCHEM_EFFECTIVE_ROTOR_COUNT>
6.2

> <PUBCHEM_PHARMACOPHORE_FEATURES>
12
1 1 acceptor
1 2 acceptor
1 3 acceptor
1 3 donor
1 4 acceptor
1 4 donor
1 5 acceptor
1 5 donor
1 6 acceptor
1 6 donor
6 1 7 8 9 10 11 rings
6 15 16 17 18 19 20 rings

> <PUBCHEM_HEAVY_ATOM_COUNT>
20

> <PUBCHEM_ATOM_DEF_STEREO_COUNT>
5

> <PUBCHEM_ATOM_UDEF_STEREO_COUNT>
0

> <PUBCHEM_BOND_DEF_STEREO_COUNT>
0

> <PUBCHEM_BOND_UDEF_STEREO_COUNT>
0

> <PUBCHEM_ISOTOPIC_ATOM_COUNT>
0

> <PUBCHEM_COMPONENT_COUNT>
1

> <PUBCHEM_CACTVS_TAUTO_COUNT>
1

> <PUBCHEM_CONFORMER_ID>
02F8BD2100000001

> <PUBCHEM_MMFF94_ENERGY>
51.1618

> <PUBCHEM_FEATURE_SELFOVERLAP>
60.956

> <PUBCHEM_SHAPE_FINGERPRINT>
10366900 7 16702299040660549440
12173636 292 11458966660081153727
12553582 1 17968647229956300376
12592029 89 18337947888432026551
12596599 1 18188782763229287194
12633257 1 18262816089462506715
128993 33 18410295847786459226
13032168 30 17044856582498231732
17349148 13 18341898502482980061
1813 80 13551767278664222113
18981168 100 12750688442457193884
19930381 70 17608077677215841035
20291156 8 17967537856909643536
20442098 301 18411135878944045732
21713013 43 15647338494307177538
21731516 1 18113609097693557052
21860390 5 8637293384056055967
23728640 28 18271795818064289063
35225 105 16987174917988335686
465052 167 18114758061717301625
539174 4 17630058048141151523
6786 2 14133805608457478311
7097593 13 18115886250420057493

> <PUBCHEM_SHAPE_MULTIPOLES>
376.37
6.82
2.49
2.04
3.15
0.26
0.01
0.87
-2.45
-0.43
0.93
-0.61
0.92
-0.79

> <PUBCHEM_SHAPE_SELFOVERLAP>
777.171

> <PUBCHEM_SHAPE_VOLUME>
212

> <PUBCHEM_COORDINATE_TYPE>
2
5
10

$$$$
