5328791
  -OEChem-01082403223D

 21 21  0     0  0  0  0  0  0999 V2000
    4.6475   -0.3177   -0.0011 O   0  0  0  0  0  0  0  0  0  0  0  0
   -4.1056   -0.5121   -0.0006 O   0  0  0  0  0  0  0  0  0  0  0  0
   -3.5371    1.6874    0.0009 O   0  0  0  0  0  0  0  0  0  0  0  0
   -1.3402   -2.5522   -0.0017 N   0  0  0  0  0  0  0  0  0  0  0  0
    0.5969    0.5879    0.0016 C   0  0  0  0  0  0  0  0  0  0  0  0
    1.2779    0.4333    1.2090 C   0  0  0  0  0  0  0  0  0  0  0  0
    1.2771    0.4382   -1.2070 C   0  0  0  0  0  0  0  0  0  0  0  0
   -0.8226    0.9049    0.0017 C   0  0  0  0  0  0  0  0  0  0  0  0
    2.6392    0.1292    1.2078 C   0  0  0  0  0  0  0  0  0  0  0  0
    2.6384    0.1339   -1.2082 C   0  0  0  0  0  0  0  0  0  0  0  0
    3.3195   -0.0206   -0.0007 C   0  0  0  0  0  0  0  0  0  0  0  0
   -1.8202   -0.0095   -0.0002 C   0  0  0  0  0  0  0  0  0  0  0  0
   -3.2153    0.5091   -0.0001 C   0  0  0  0  0  0  0  0  0  0  0  0
   -1.5556   -1.4118   -0.0014 C   0  0  0  0  0  0  0  0  0  0  0  0
    0.7618    0.5474    2.1594 H   0  0  0  0  0  0  0  0  0  0  0  0
    0.7604    0.5561   -2.1565 H   0  0  0  0  0  0  0  0  0  0  0  0
   -1.0399    1.9705    0.0030 H   0  0  0  0  0  0  0  0  0  0  0  0
    3.1583    0.0113    2.1552 H   0  0  0  0  0  0  0  0  0  0  0  0
    3.1629    0.0185   -2.1528 H   0  0  0  0  0  0  0  0  0  0  0  0
    4.9550   -0.3882    0.9189 H   0  0  0  0  0  0  0  0  0  0  0  0
   -5.0324   -0.1908   -0.0002 H   0  0  0  0  0  0  0  0  0  0  0  0
  1 11  1  0  0  0  0
  1 20  1  0  0  0  0
  2 13  1  0  0  0  0
  2 21  1  0  0  0  0
  3 13  2  0  0  0  0
  4 14  3  0  0  0  0
  5  6  2  0  0  0  0
  5  7  1  0  0  0  0
  5  8  1  0  0  0  0
  6  9  1  0  0  0  0
  6 15  1  0  0  0  0
  7 10  2  0  0  0  0
  7 16  1  0  0  0  0
  8 12  2  0  0  0  0
  8 17  1  0  0  0  0
  9 11  2  0  0  0  0
  9 18  1  0  0  0  0
 10 11  1  0  0  0  0
 10 19  1  0  0  0  0
 12 13  1  0  0  0  0
 12 14  1  0  0  0  0
M  END
> <PUBCHEM_COMPOUND_CID>
5328791

> <PUBCHEM_CONFORMER_RMSD>
0.6

> <PUBCHEM_CONFORMER_DIVERSEORDER>
1
2
3

> <PUBCHEM_MMFF94_PARTIAL_CHARGES>
21
1 -0.53
10 -0.15
11 0.08
12 0.08
13 0.71
14 0.49
15 0.15
16 0.15
17 0.15
18 0.15
19 0.15
2 -0.65
20 0.45
21 0.5
3 -0.57
4 -0.56
5 0.03
6 -0.15
7 -0.15
8 -0.18
9 -0.15

> <PUBCHEM_EFFECTIVE_ROTOR_COUNT>
2

> <PUBCHEM_PHARMACOPHORE_FEATURES>
6
1 1 donor
1 2 acceptor
1 3 acceptor
1 4 acceptor
3 2 3 13 anion
6 5 6 7 9 10 11 rings

> <PUBCHEM_HEAVY_ATOM_COUNT>
14

> <PUBCHEM_ATOM_DEF_STEREO_COUNT>
0

> <PUBCHEM_ATOM_UDEF_STEREO_COUNT>
0

> <PUBCHEM_BOND_DEF_STEREO_COUNT>
1

> <PUBCHEM_BOND_UDEF_STEREO_COUNT>
0

> <PUBCHEM_ISOTOPIC_ATOM_COUNT>
0

> <PUBCHEM_COMPONENT_COUNT>
1

> <PUBCHEM_CACTVS_TAUTO_COUNT>
2

> <PUBCHEM_CONFORMER_ID>
00514F9700000001

> <PUBCHEM_MMFF94_ENERGY>
34.2256

> <PUBCHEM_FEATURE_SELFOVERLAP>
30.504

> <PUBCHEM_SHAPE_FINGERPRINT>
10465860 250 18131628963754357936
11471102 22 16415487064478162970
12236239 1 17676488341191305213
124424 183 17703789210930325768
12500047 106 18413665807780760254
12932764 1 17531232989769987876
13538477 17 17968658345041609523
13581323 91 18409726274750724769
14115302 16 18409737278557131620
14144814 61 18187363229361695137
14993402 34 18113614590845842069
15207287 21 17775284945599130254
15279307 12 18040149630229907386
15279308 132 18343582945131941139
15375358 24 17847057783658572480
16945 1 18410573989457091361
18175812 5 17846212302198348500
18186145 218 17846221020976678361
19422 9 17603594048974737027
20201158 50 17489592251048235638
20279233 1 17775290477764836110
20645476 183 17894351094305058075
20645477 70 14924208405316862801
21119208 17 17749108889714816750
23402539 116 18271799103899010309
23402655 69 15719384023502285663
23559900 14 18343864408104438546
23598291 2 17749958876385069478
465052 167 17824282590512592627
57426455 114 18201715171597326539
69090 78 17418086650882030383
74978 22 18335983185185223781
77492 1 17676205783872234469
81228 2 17415867733032417672
8272917 22 16588856859839905049
9939556 21 18114751550082533956

> <PUBCHEM_SHAPE_MULTIPOLES>
265.52
7.02
1.45
1.04
0.12
0.84
0
-0.27
0
-1.46
0
0.88
-0.12
0

> <PUBCHEM_SHAPE_SELFOVERLAP>
560.036

> <PUBCHEM_SHAPE_VOLUME>
146.9

> <PUBCHEM_COORDINATE_TYPE>
2
5
10

$$$$
