7009598
  -OEChem-01082403213D

 34 34  0     1  0  0  0  0  0999 V2000
   -1.9990    2.5341   -0.6555 O   0  0  0  0  0  0  0  0  0  0  0  0
   -1.9456   -0.2356    1.5324 O   0  0  0  0  0  0  0  0  0  0  0  0
   -4.6738   -0.6718    0.1295 O   0  0  0  0  0  0  0  0  0  0  0  0
   -0.3027    3.6360    0.3538 O   0  0  0  0  0  0  0  0  0  0  0  0
   -0.8739    0.1788   -0.4821 N   0  0  0  0  0  0  0  0  0  0  0  0
   -1.6808   -2.7918   -0.2830 N   0  0  0  0  0  0  0  0  0  0  0  0
   -0.0429    1.2577   -0.0031 C   0  0  1  0  0  0  0  0  0  0  0  0
    1.2685    1.3392   -0.7951 C   0  0  0  0  0  0  0  0  0  0  0  0
    2.2788    0.3009   -0.3703 C   0  0  0  0  0  0  0  0  0  0  0  0
   -2.5182   -1.5986   -0.3896 C   0  0  2  0  0  0  0  0  0  0  0  0
   -1.7706   -0.4876    0.3420 C   0  0  0  0  0  0  0  0  0  0  0  0
   -0.7768    2.5888   -0.0741 C   0  0  0  0  0  0  0  0  0  0  0  0
   -3.8957   -1.8610    0.2153 C   0  0  0  0  0  0  0  0  0  0  0  0
    3.1792    0.6025    0.6392 C   0  0  0  0  0  0  0  0  0  0  0  0
    2.2872   -0.9351   -0.9972 C   0  0  0  0  0  0  0  0  0  0  0  0
    4.1125   -0.3568    1.0319 C   0  0  0  0  0  0  0  0  0  0  0  0
    3.2206   -1.8944   -0.6043 C   0  0  0  0  0  0  0  0  0  0  0  0
    4.1332   -1.6052    0.4103 C   0  0  0  0  0  0  0  0  0  0  0  0
    0.1557    1.0832    1.0623 H   0  0  0  0  0  0  0  0  0  0  0  0
    1.0768    1.2494   -1.8734 H   0  0  0  0  0  0  0  0  0  0  0  0
    1.7284    2.3297   -0.6752 H   0  0  0  0  0  0  0  0  0  0  0  0
   -0.8378   -0.0559   -1.4699 H   0  0  0  0  0  0  0  0  0  0  0  0
   -2.6396   -1.3145   -1.4420 H   0  0  0  0  0  0  0  0  0  0  0  0
   -3.8276   -2.1467    1.2710 H   0  0  0  0  0  0  0  0  0  0  0  0
   -4.4176   -2.6548   -0.3300 H   0  0  0  0  0  0  0  0  0  0  0  0
    3.1693    1.5708    1.1312 H   0  0  0  0  0  0  0  0  0  0  0  0
    1.5813   -1.1705   -1.7885 H   0  0  0  0  0  0  0  0  0  0  0  0
   -0.8019   -2.6382   -0.7766 H   0  0  0  0  0  0  0  0  0  0  0  0
   -2.1368   -3.5724   -0.7538 H   0  0  0  0  0  0  0  0  0  0  0  0
    4.8226   -0.1320    1.8223 H   0  0  0  0  0  0  0  0  0  0  0  0
    3.2366   -2.8667   -1.0881 H   0  0  0  0  0  0  0  0  0  0  0  0
    4.8596   -2.3523    0.7163 H   0  0  0  0  0  0  0  0  0  0  0  0
   -2.4324    3.4138   -0.6819 H   0  0  0  0  0  0  0  0  0  0  0  0
   -5.5430   -0.8718    0.5169 H   0  0  0  0  0  0  0  0  0  0  0  0
  1 12  1  0  0  0  0
  1 33  1  0  0  0  0
  2 11  2  0  0  0  0
  3 13  1  0  0  0  0
  3 34  1  0  0  0  0
  4 12  2  0  0  0  0
  5  7  1  0  0  0  0
  5 11  1  0  0  0  0
  5 22  1  0  0  0  0
  6 10  1  0  0  0  0
  6 28  1  0  0  0  0
  6 29  1  0  0  0  0
  7  8  1  0  0  0  0
  7 12  1  0  0  0  0
  7 19  1  0  0  0  0
  8  9  1  0  0  0  0
  8 20  1  0  0  0  0
  8 21  1  0  0  0  0
  9 14  2  0  0  0  0
  9 15  1  0  0  0  0
 10 11  1  0  0  0  0
 10 13  1  0  0  0  0
 10 23  1  0  0  0  0
 13 24  1  0  0  0  0
 13 25  1  0  0  0  0
 14 16  1  0  0  0  0
 14 26  1  0  0  0  0
 15 17  2  0  0  0  0
 15 27  1  0  0  0  0
 16 18  2  0  0  0  0
 16 30  1  0  0  0  0
 17 18  1  0  0  0  0
 17 31  1  0  0  0  0
 18 32  1  0  0  0  0
M  END
> <PUBCHEM_COMPOUND_CID>
7009598

> <PUBCHEM_CONFORMER_RMSD>
0.8

> <PUBCHEM_CONFORMER_DIVERSEORDER>
1
47
20
65
22
12
60
42
63
51
48
39
15
59
4
5
40
28
18
14
45
26
17
31
6
49
24
36
58
38
56
8
55
68
32
50
11
44
30
33
10
43
21
67
64
53
27
29
66
34
41
13
54
69
2
57
52
23
3
9
62
61
7
46
37
25
16
19
35

> <PUBCHEM_MMFF94_PARTIAL_CHARGES>
28
1 -0.65
10 0.33
11 0.57
12 0.66
13 0.28
14 -0.15
15 -0.15
16 -0.15
17 -0.15
18 -0.15
2 -0.57
22 0.37
26 0.15
27 0.15
28 0.36
29 0.36
3 -0.68
30 0.15
31 0.15
32 0.15
33 0.5
34 0.4
4 -0.57
5 -0.73
6 -0.99
7 0.36
8 0.14
9 -0.14

> <PUBCHEM_EFFECTIVE_ROTOR_COUNT>
7

> <PUBCHEM_PHARMACOPHORE_FEATURES>
10
1 1 acceptor
1 2 acceptor
1 3 acceptor
1 3 donor
1 4 acceptor
1 5 donor
1 6 cation
1 6 donor
3 1 4 12 anion
6 9 14 15 16 17 18 rings

> <PUBCHEM_HEAVY_ATOM_COUNT>
18

> <PUBCHEM_ATOM_DEF_STEREO_COUNT>
2

> <PUBCHEM_ATOM_UDEF_STEREO_COUNT>
0

> <PUBCHEM_BOND_DEF_STEREO_COUNT>
0

> <PUBCHEM_BOND_UDEF_STEREO_COUNT>
0

> <PUBCHEM_ISOTOPIC_ATOM_COUNT>
0

> <PUBCHEM_COMPONENT_COUNT>
1

> <PUBCHEM_CACTVS_TAUTO_COUNT>
2

> <PUBCHEM_CONFORMER_ID>
006AF53E00000001

> <PUBCHEM_MMFF94_ENERGY>
33.1476

> <PUBCHEM_FEATURE_SELFOVERLAP>
50.808

> <PUBCHEM_SHAPE_FINGERPRINT>
10618630 7 18407761447514249590
11265709 11 18408888455459305532
116883 192 18410295791556213108
12346177 29 18115583730092611844
12363563 72 18334301993199057122
12500047 106 17977381634463488780
12553582 1 18338813310935295646
12633257 1 17845666841240838090
12788726 201 18334303054145520096
12824470 246 17676755496984246330
13004483 165 18337378388199986570
13083527 12 18264477559291548780
14178342 30 18191576451014629522
14790565 3 17545321242642397420
15885798 251 18408606976419586699
16752209 62 18114742633725067947
17834072 14 18411689993811992879
18186145 218 8502384286421533363
20626108 58 18055338391441332955
20645477 70 18116431633920055055
20711985 365 18408605829325877701
21250096 35 18337106860235826979
21296965 67 18336543906129694225
2255824 54 17689443002064903013
23184049 29 18410293588638903748
23402539 116 18271796905249989381
23419403 2 17755824801174455692
23526113 38 17460033109512480425
23557571 272 18411979140059132570
23559900 14 18339633439763117052
257057 1 18338512066097410444
3091708 16 9136087851935048449
31174 14 17988917916420240976
314173 41 18265343991096119855
6049 1 17916593012439534692
6333272 397 9655586205411744023
6338986 31 18338236071493584285
7364860 26 17908426110266530921
81228 2 18262529103895289161
8988823 20 17489296542745019963
9709674 26 18127403450337474462

> <PUBCHEM_SHAPE_MULTIPOLES>
336.99
7.62
3.29
0.98
0.01
2.12
-0.12
-5.49
-1.39
1.77
0.27
-0.34
-0.05
0.25

> <PUBCHEM_SHAPE_SELFOVERLAP>
687.554

> <PUBCHEM_SHAPE_VOLUME>
193.4

> <PUBCHEM_COORDINATE_TYPE>
2
5
10

$$$$
