92180
  -OEChem-01082403223D

 28 29  0     0  0  0  0  0  0999 V2000
   -0.8325   -0.0954    0.4413 N   0  0  0  0  0  0  0  0  0  0  0  0
    1.5746    1.8069    0.1987 N   0  0  0  0  0  0  0  0  0  0  0  0
    0.8186   -1.7892    0.0493 N   0  0  0  0  0  0  0  0  0  0  0  0
    3.6628    1.1290   -0.1868 N   0  0  0  0  0  0  0  0  0  0  0  0
    3.1739   -1.2503   -0.2877 N   0  0  0  0  0  0  0  0  0  0  0  0
    1.5114    0.4457    0.1065 C   0  0  0  0  0  0  0  0  0  0  0  0
    0.4788   -0.4802    0.2023 C   0  0  0  0  0  0  0  0  0  0  0  0
   -1.9326   -1.0200    0.5479 C   0  0  0  0  0  0  0  0  0  0  0  0
    2.8199    0.0483   -0.1330 C   0  0  0  0  0  0  0  0  0  0  0  0
   -3.1915   -0.2453    0.7869 C   0  0  0  0  0  0  0  0  0  0  0  0
   -4.0368    0.2580   -0.1328 C   0  0  0  0  0  0  0  0  0  0  0  0
    2.8830    2.1694    0.0164 C   0  0  0  0  0  0  0  0  0  0  0  0
   -5.2889    1.0296    0.1745 C   0  0  0  0  0  0  0  0  0  0  0  0
   -3.7599    0.0809   -1.6020 C   0  0  0  0  0  0  0  0  0  0  0  0
    2.1193   -2.0873   -0.1816 C   0  0  0  0  0  0  0  0  0  0  0  0
   -2.0087   -1.6517   -0.3434 H   0  0  0  0  0  0  0  0  0  0  0  0
   -1.7750   -1.6978    1.3956 H   0  0  0  0  0  0  0  0  0  0  0  0
   -1.0116    0.8977    0.5464 H   0  0  0  0  0  0  0  0  0  0  0  0
   -3.4339   -0.0800    1.8360 H   0  0  0  0  0  0  0  0  0  0  0  0
    0.8006    2.4350    0.3698 H   0  0  0  0  0  0  0  0  0  0  0  0
    3.1976    3.2029    0.0437 H   0  0  0  0  0  0  0  0  0  0  0  0
   -6.1619    0.5248   -0.2513 H   0  0  0  0  0  0  0  0  0  0  0  0
   -5.4497    1.1231    1.2536 H   0  0  0  0  0  0  0  0  0  0  0  0
   -5.2287    2.0395   -0.2435 H   0  0  0  0  0  0  0  0  0  0  0  0
   -3.8362    1.0472   -2.1136 H   0  0  0  0  0  0  0  0  0  0  0  0
   -2.7666   -0.3099   -1.8327 H   0  0  0  0  0  0  0  0  0  0  0  0
   -4.4999   -0.5956   -2.0424 H   0  0  0  0  0  0  0  0  0  0  0  0
    2.3435   -3.1423   -0.2970 H   0  0  0  0  0  0  0  0  0  0  0  0
  1  7  1  0  0  0  0
  1  8  1  0  0  0  0
  1 18  1  0  0  0  0
  2  6  1  0  0  0  0
  2 12  1  0  0  0  0
  2 20  1  0  0  0  0
  3  7  2  0  0  0  0
  3 15  1  0  0  0  0
  4  9  1  0  0  0  0
  4 12  2  0  0  0  0
  5  9  1  0  0  0  0
  5 15  2  0  0  0  0
  6  7  1  0  0  0  0
  6  9  2  0  0  0  0
  8 10  1  0  0  0  0
  8 16  1  0  0  0  0
  8 17  1  0  0  0  0
 10 11  2  0  0  0  0
 10 19  1  0  0  0  0
 11 13  1  0  0  0  0
 11 14  1  0  0  0  0
 12 21  1  0  0  0  0
 13 22  1  0  0  0  0
 13 23  1  0  0  0  0
 13 24  1  0  0  0  0
 14 25  1  0  0  0  0
 14 26  1  0  0  0  0
 14 27  1  0  0  0  0
 15 28  1  0  0  0  0
M  END
> <PUBCHEM_COMPOUND_CID>
92180

> <PUBCHEM_CONFORMER_RMSD>
0.6

> <PUBCHEM_CONFORMER_DIVERSEORDER>
2
22
9
16
19
7
30
14
17
29
25
20
5
18
28
6
27
23
1
21
12
4
24
13
11
3
15
26
10
8

> <PUBCHEM_MMFF94_PARTIAL_CHARGES>
20
1 -0.87
10 -0.29
11 -0.28
12 0.04
13 0.14
14 0.14
15 0.47
18 0.4
19 0.15
2 0.03
20 0.27
21 0.15
28 0.15
3 -0.62
4 -0.57
5 -0.57
6 -0.15
7 0.41
8 0.51
9 0.48

> <PUBCHEM_EFFECTIVE_ROTOR_COUNT>
3

> <PUBCHEM_PHARMACOPHORE_FEATURES>
8
1 1 donor
1 2 donor
3 1 3 7 cation
3 11 13 14 hydrophobe
3 2 4 12 cation
3 3 5 15 cation
5 2 4 6 9 12 rings
6 3 5 6 7 9 15 rings

> <PUBCHEM_HEAVY_ATOM_COUNT>
15

> <PUBCHEM_ATOM_DEF_STEREO_COUNT>
0

> <PUBCHEM_ATOM_UDEF_STEREO_COUNT>
0

> <PUBCHEM_BOND_DEF_STEREO_COUNT>
0

> <PUBCHEM_BOND_UDEF_STEREO_COUNT>
0

> <PUBCHEM_ISOTOPIC_ATOM_COUNT>
0

> <PUBCHEM_COMPONENT_COUNT>
1

> <PUBCHEM_CACTVS_TAUTO_COUNT>
8

> <PUBCHEM_CONFORMER_ID>
0001681400000002

> <PUBCHEM_MMFF94_ENERGY>
25.6005

> <PUBCHEM_FEATURE_SELFOVERLAP>
40.837

> <PUBCHEM_SHAPE_FINGERPRINT>
10608611 8 18334296491593506963
11265709 11 17902787466937459738
11471102 20 18411420600768144146
11543360 7 15338563854811830920
116883 192 18054796087263386588
12654215 9 18408324389125467672
12730499 353 18261399931977676203
13081056 2 18260267426337064605
13922767 16 18409728469642569570
14251717 144 18341894073701914542
14415576 193 18409171029884327501
15219456 202 18261397771118353291
15442244 35 18125165926520463777
17834072 33 18343016706014150031
18186145 218 18412272747870301731
19433438 15 17846494803909470461
200 152 18060417997737840369
20606313 2 18410857655109644730
20645476 183 17703782657105852751
20645477 56 18040719182217462019
20645477 70 18341335513247540727
21486144 27 18260547827418912039
21499 59 18341049738928932215
21639500 275 18341606057579539941
22289505 5 18337387128537841245
22485316 2 9151168745406130849
22892500 29 18409446981469688244
22943178 12 18114472231411832867
231179 274 18040430009994790144
23402655 69 18272934912305811061
23557571 272 17749113331143588995
25 1 18409166636106390394
3060560 45 18202008698653489230
4072396 5 18409719661213187418
5104073 3 18335142003308744699
5281201 14 18336548209940028853
543358 83 18269561550333297889
81539 233 18261394485668714814
8272917 22 18200318719216683175
9971528 1 18129940070881351162

> <PUBCHEM_SHAPE_MULTIPOLES>
283.79
9
1.95
0.87
9.73
0.08
0.24
2.97
0.99
-2.22
-0.02
0.88
-0.03
0.22

> <PUBCHEM_SHAPE_SELFOVERLAP>
597.773

> <PUBCHEM_SHAPE_VOLUME>
158.4

> <PUBCHEM_COORDINATE_TYPE>
2
5
10

$$$$
