145448965
  -OEChem-03112304393D

 34 34  0     0  0  0  0  0  0999 V2000
   -0.8496    0.2322    1.0931 O   0  0  0  0  0  0  0  0  0  0  0  0
   -0.3339   -0.6928   -0.9918 O   0  0  0  0  0  0  0  0  0  0  0  0
   -6.9383   -0.8797   -0.1406 O   0  5  0  0  0  0  0  0  0  0  0  0
   -6.7324    1.1264   -1.0079 O   0  0  0  0  0  0  0  0  0  0  0  0
    6.6440    0.5682   -0.2223 N   0  0  0  0  0  0  0  0  0  0  0  0
   -6.2499    0.1338   -0.4112 N   0  3  0  0  0  0  0  0  0  0  0  0
    7.8109    0.8216    0.1277 N   0  3  0  0  0  0  0  0  0  0  0  0
    8.8789    1.0613    0.4486 N   0  5  0  0  0  0  0  0  0  0  0  0
    3.8901   -0.5007    0.1051 C   0  0  0  0  0  0  0  0  0  0  0  0
    2.4529   -0.6515   -0.4052 C   0  0  0  0  0  0  0  0  0  0  0  0
    4.9009   -0.9928   -0.9354 C   0  0  0  0  0  0  0  0  0  0  0  0
    1.4182   -0.2011    0.6260 C   0  0  0  0  0  0  0  0  0  0  0  0
    6.3430   -0.8438   -0.4630 C   0  0  0  0  0  0  0  0  0  0  0  0
   -0.0033   -0.2786    0.1111 C   0  0  0  0  0  0  0  0  0  0  0  0
   -2.1951    0.2076    0.7186 C   0  0  0  0  0  0  0  0  0  0  0  0
   -2.9796   -0.9087    1.0090 C   0  0  0  0  0  0  0  0  0  0  0  0
   -2.7542    1.2991    0.0540 C   0  0  0  0  0  0  0  0  0  0  0  0
   -4.8821    0.1582   -0.0299 C   0  0  0  0  0  0  0  0  0  0  0  0
   -4.3230   -0.9333    0.6346 C   0  0  0  0  0  0  0  0  0  0  0  0
   -4.0975    1.2744   -0.3204 C   0  0  0  0  0  0  0  0  0  0  0  0
    4.0122   -1.0720    1.0332 H   0  0  0  0  0  0  0  0  0  0  0  0
    4.0736    0.5528    0.3461 H   0  0  0  0  0  0  0  0  0  0  0  0
    2.2646   -1.6986   -0.6735 H   0  0  0  0  0  0  0  0  0  0  0  0
    2.3302   -0.0671   -1.3259 H   0  0  0  0  0  0  0  0  0  0  0  0
    4.7084   -2.0479   -1.1635 H   0  0  0  0  0  0  0  0  0  0  0  0
    4.7645   -0.4307   -1.8677 H   0  0  0  0  0  0  0  0  0  0  0  0
    1.4910   -0.8308    1.5197 H   0  0  0  0  0  0  0  0  0  0  0  0
    1.6175    0.8392    0.9080 H   0  0  0  0  0  0  0  0  0  0  0  0
    6.4972   -1.4245    0.4546 H   0  0  0  0  0  0  0  0  0  0  0  0
    7.0153   -1.2446   -1.2312 H   0  0  0  0  0  0  0  0  0  0  0  0
   -2.5493   -1.7615    1.5268 H   0  0  0  0  0  0  0  0  0  0  0  0
   -2.1477    2.1714   -0.1743 H   0  0  0  0  0  0  0  0  0  0  0  0
   -4.9037   -1.8196    0.8773 H   0  0  0  0  0  0  0  0  0  0  0  0
   -4.4989    2.1427   -0.8367 H   0  0  0  0  0  0  0  0  0  0  0  0
  1 14  1  0  0  0  0
  1 15  1  0  0  0  0
  2 14  2  0  0  0  0
  3  6  1  0  0  0  0
  4  6  2  0  0  0  0
  5  7  2  0  0  0  0
  5 13  1  0  0  0  0
  6 18  1  0  0  0  0
  7  8  2  0  0  0  0
  9 10  1  0  0  0  0
  9 11  1  0  0  0  0
  9 21  1  0  0  0  0
  9 22  1  0  0  0  0
 10 12  1  0  0  0  0
 10 23  1  0  0  0  0
 10 24  1  0  0  0  0
 11 13  1  0  0  0  0
 11 25  1  0  0  0  0
 11 26  1  0  0  0  0
 12 14  1  0  0  0  0
 12 27  1  0  0  0  0
 12 28  1  0  0  0  0
 13 29  1  0  0  0  0
 13 30  1  0  0  0  0
 15 16  2  0  0  0  0
 15 17  1  0  0  0  0
 16 19  1  0  0  0  0
 16 31  1  0  0  0  0
 17 20  2  0  0  0  0
 17 32  1  0  0  0  0
 18 19  2  0  0  0  0
 18 20  1  0  0  0  0
 19 33  1  0  0  0  0
 20 34  1  0  0  0  0
M  CHG  4   3  -1   6   1   7   1   8  -1
M  END
> <PUBCHEM_COMPOUND_CID>
145448965

> <PUBCHEM_CONFORMER_RMSD>
1.2

> <PUBCHEM_CONFORMER_DIVERSEORDER>
1
14
10
26
21
17
40
9
3
16
35
34
28
8
19
30
22
7
37
2
32
33
42
25
23
18
27
15
24
6
39
38
13
41
11
29
4
12
36
20
5
31

> <PUBCHEM_MMFF94_PARTIAL_CHARGES>
21
1 -0.23
12 0.06
13 0.25
14 0.66
15 0.08
16 -0.15
17 -0.15
18 0.13
19 -0.15
2 -0.57
20 -0.15
3 -0.52
31 0.15
32 0.15
33 0.15
34 0.15
4 -0.52
5 -0.56
6 0.91
7 0.69
8 -0.37

> <PUBCHEM_EFFECTIVE_ROTOR_COUNT>
9

> <PUBCHEM_PHARMACOPHORE_FEATURES>
6
1 2 acceptor
1 3 acceptor
1 3 anion
1 4 acceptor
4 9 10 11 12 hydrophobe
6 15 16 17 18 19 20 rings

> <PUBCHEM_HEAVY_ATOM_COUNT>
20

> <PUBCHEM_ATOM_DEF_STEREO_COUNT>
0

> <PUBCHEM_ATOM_UDEF_STEREO_COUNT>
0

> <PUBCHEM_BOND_DEF_STEREO_COUNT>
0

> <PUBCHEM_BOND_UDEF_STEREO_COUNT>
0

> <PUBCHEM_ISOTOPIC_ATOM_COUNT>
0

> <PUBCHEM_COMPONENT_COUNT>
1

> <PUBCHEM_CACTVS_TAUTO_COUNT>
-1

> <PUBCHEM_CONFORMER_ID>
08AB600500000001

> <PUBCHEM_MMFF94_ENERGY>
40.4478

> <PUBCHEM_FEATURE_SELFOVERLAP>
30.528

> <PUBCHEM_SHAPE_FINGERPRINT>
10 15 18409728487592474496
10299344 5 13470691443084345236
10638233 991 15985103033605981616
10968037 39 18410856556067586723
11089746 13 16298392370106805743
11315181 36 18202567272404097985
11524674 6 11674884398215683264
13288520 33 13830128387026539843
13533116 47 17531518781115030658
14123256 10 16988563507359623696
1420 363 14476957874527464982
14251718 22 18342178847450820374
14251764 18 16515402967090570754
14251764 46 18410855460138730803
14729087 3 17676485029877054325
15183329 4 17240772748550627278
15716309 27 16200153166391294526
15849732 13 18343022198923894156
17093844 174 17676209078729179993
17834076 25 15357700785952611723
18335252 98 18060142058832153854
19489759 90 18114186315174719523
200 152 17274820225922248555
20554085 129 18113327627380846010
21095086 128 12031788063214445308
21150785 3 17704352178227179044
21267235 1 12895348906674838683
220451 1 14189576304409715950
22224240 67 17676204685067657658
22896161 15 18202565090033288118
23035841 295 11672061930739653972
23081809 10 16629972027809034474
23559900 14 18335137630873917601
246663 6 12463570690473531812
300161 21 17676206857909639866
328311 84 9367347037883911968
33532 11 10735883859483146972
4325135 7 17632578262479065924
559249 180 14057010446301089105

> <PUBCHEM_SHAPE_MULTIPOLES>
368.19
23.19
1.19
0.93
32.91
0.16
0.01
5.09
-2.58
-0.16
-0.05
-0.26
-0.07
1.23

> <PUBCHEM_SHAPE_SELFOVERLAP>
746.032

> <PUBCHEM_SHAPE_VOLUME>
213

> <PUBCHEM_COORDINATE_TYPE>
2
5
10

$$$$
