14608157
  -OEChem-03112304393D

 35 35  0     0  0  0  0  0  0999 V2000
   -0.0755    0.7260   -1.0354 O   0  0  0  0  0  0  0  0  0  0  0  0
    0.6251   -0.4741    0.8453 O   0  0  0  0  0  0  0  0  0  0  0  0
   -5.9254    0.4495    1.2192 O   0  5  0  0  0  0  0  0  0  0  0  0
   -5.8790   -1.4042    0.0441 O   0  0  0  0  0  0  0  0  0  0  0  0
   -5.3289   -0.3588    0.4673 N   0  3  0  0  0  0  0  0  0  0  0  0
    4.7540    0.2500   -0.3862 C   0  0  0  0  0  0  0  0  0  0  0  0
    5.8563   -0.3487    0.4898 C   0  0  0  0  0  0  0  0  0  0  0  0
    3.3648   -0.0612    0.1797 C   0  0  0  0  0  0  0  0  0  0  0  0
    7.2438   -0.0148   -0.0573 C   0  0  0  0  0  0  0  0  0  0  0  0
    2.2429    0.5489   -0.6601 C   0  0  0  0  0  0  0  0  0  0  0  0
    8.3416   -0.6353    0.7918 C   0  0  0  0  0  0  0  0  0  0  0  0
    0.8616    0.1928   -0.1530 C   0  0  0  0  0  0  0  0  0  0  0  0
   -1.3925    0.4537   -0.6583 C   0  0  0  0  0  0  0  0  0  0  0  0
   -2.0430    1.3458    0.1653 C   0  0  0  0  0  0  0  0  0  0  0  0
   -1.9906   -0.6956   -1.1257 C   0  0  0  0  0  0  0  0  0  0  0  0
   -3.9903   -0.0817    0.0830 C   0  0  0  0  0  0  0  0  0  0  0  0
   -3.3587    1.0746    0.5408 C   0  0  0  0  0  0  0  0  0  0  0  0
   -3.3063   -0.9668   -0.7503 C   0  0  0  0  0  0  0  0  0  0  0  0
    4.8334   -0.1488   -1.4047 H   0  0  0  0  0  0  0  0  0  0  0  0
    4.8857    1.3368   -0.4521 H   0  0  0  0  0  0  0  0  0  0  0  0
    5.7640    0.0356    1.5129 H   0  0  0  0  0  0  0  0  0  0  0  0
    5.7322   -1.4372    0.5411 H   0  0  0  0  0  0  0  0  0  0  0  0
    3.2925    0.3144    1.2081 H   0  0  0  0  0  0  0  0  0  0  0  0
    3.2298   -1.1489    0.2354 H   0  0  0  0  0  0  0  0  0  0  0  0
    7.3810    1.0724   -0.0862 H   0  0  0  0  0  0  0  0  0  0  0  0
    7.3365   -0.3811   -1.0864 H   0  0  0  0  0  0  0  0  0  0  0  0
    2.3344    1.6408   -0.6587 H   0  0  0  0  0  0  0  0  0  0  0  0
    2.3258    0.1877   -1.6917 H   0  0  0  0  0  0  0  0  0  0  0  0
    8.2967   -0.2666    1.8215 H   0  0  0  0  0  0  0  0  0  0  0  0
    8.2522   -1.7262    0.8130 H   0  0  0  0  0  0  0  0  0  0  0  0
    9.3251   -0.3831    0.3833 H   0  0  0  0  0  0  0  0  0  0  0  0
   -1.5512    2.2459    0.5205 H   0  0  0  0  0  0  0  0  0  0  0  0
   -1.4581   -1.3837   -1.7748 H   0  0  0  0  0  0  0  0  0  0  0  0
   -3.8602    1.7867    1.1912 H   0  0  0  0  0  0  0  0  0  0  0  0
   -3.7662   -1.8772   -1.1260 H   0  0  0  0  0  0  0  0  0  0  0  0
  1 12  1  0  0  0  0
  1 13  1  0  0  0  0
  2 12  2  0  0  0  0
  3  5  1  0  0  0  0
  4  5  2  0  0  0  0
  5 16  1  0  0  0  0
  6  7  1  0  0  0  0
  6  8  1  0  0  0  0
  6 19  1  0  0  0  0
  6 20  1  0  0  0  0
  7  9  1  0  0  0  0
  7 21  1  0  0  0  0
  7 22  1  0  0  0  0
  8 10  1  0  0  0  0
  8 23  1  0  0  0  0
  8 24  1  0  0  0  0
  9 11  1  0  0  0  0
  9 25  1  0  0  0  0
  9 26  1  0  0  0  0
 10 12  1  0  0  0  0
 10 27  1  0  0  0  0
 10 28  1  0  0  0  0
 11 29  1  0  0  0  0
 11 30  1  0  0  0  0
 11 31  1  0  0  0  0
 13 14  2  0  0  0  0
 13 15  1  0  0  0  0
 14 17  1  0  0  0  0
 14 32  1  0  0  0  0
 15 18  2  0  0  0  0
 15 33  1  0  0  0  0
 16 17  2  0  0  0  0
 16 18  1  0  0  0  0
 17 34  1  0  0  0  0
 18 35  1  0  0  0  0
M  CHG  2   3  -1   5   1
M  END
> <PUBCHEM_COMPOUND_CID>
14608157

> <PUBCHEM_CONFORMER_RMSD>
0.8

> <PUBCHEM_CONFORMER_DIVERSEORDER>
1
89
14
107
102
116
88
149
13
61
148
146
34
54
141
12
131
127
28
167
78
32
66
98
55
68
60
56
118
135
41
153
122
124
2
106
22
81
87
31
155
77
163
51
143
99
21
75
139
150
161
15
168
95
19
42
115
52
70
133
38
59
91
112
35
156
44
36
74
4
129
120
110
137
6
48
108
140
20
166
37
33
80
50
144
157
46
63
86
17
136
85
105
134
43
23
147
96
126
121
49
40
65
45
7
71
29
25
73
11
158
76
26
111
62
58
53
160
39
94
5
138
8
162
142
90
67
125
159
123
97
109
57
130
3
84
132
79
16
152
27
103
145
93
10
117
113
9
24
18
128
64
83
164
104
154
101
82
151
165
72
119
92
100
30
114
47
69

> <PUBCHEM_MMFF94_PARTIAL_CHARGES>
17
1 -0.23
10 0.06
12 0.66
13 0.08
14 -0.15
15 -0.15
16 0.13
17 -0.15
18 -0.15
2 -0.57
3 -0.52
32 0.15
33 0.15
34 0.15
35 0.15
4 -0.52
5 0.91

> <PUBCHEM_EFFECTIVE_ROTOR_COUNT>
8

> <PUBCHEM_PHARMACOPHORE_FEATURES>
7
1 11 hydrophobe
1 2 acceptor
1 3 acceptor
1 3 anion
1 4 acceptor
5 6 7 8 9 10 hydrophobe
6 13 14 15 16 17 18 rings

> <PUBCHEM_HEAVY_ATOM_COUNT>
18

> <PUBCHEM_ATOM_DEF_STEREO_COUNT>
0

> <PUBCHEM_ATOM_UDEF_STEREO_COUNT>
0

> <PUBCHEM_BOND_DEF_STEREO_COUNT>
0

> <PUBCHEM_BOND_UDEF_STEREO_COUNT>
0

> <PUBCHEM_ISOTOPIC_ATOM_COUNT>
0

> <PUBCHEM_COMPONENT_COUNT>
1

> <PUBCHEM_CACTVS_TAUTO_COUNT>
1

> <PUBCHEM_CONFORMER_ID>
00DEE71D00000001

> <PUBCHEM_MMFF94_ENERGY>
37.0552

> <PUBCHEM_FEATURE_SELFOVERLAP>
35.602

> <PUBCHEM_SHAPE_FINGERPRINT>
10299344 5 18408887335264060590
106641 1 16056879165367756583
11089746 13 10879989160085026554
11315181 36 18407760343734190581
12091667 2 17385442107276413245
12236239 1 18334298686206030165
13073987 5 17489033643707618650
13288520 33 16226048899093514933
13668630 136 16515405162304201362
13862211 1 17530682100638348656
14123256 10 14201115708844498008
1420 363 17603305947417363498
14251718 22 13551189987798986656
14251764 18 18408886257163946332
14251764 46 16630526232686463742
14350574 20 17022902363380391932
14729087 3 15482674554498903331
14849402 71 18269273629487330896
15048467 5 11887955458564833446
15716309 27 18334575742167515806
17093844 174 14476952398407239478
17834072 8 11241971482214688254
17834076 25 12463570677736264372
200 152 16805321102566033533
20281389 69 14333410034979049418
20621476 8 12751243602088844712
20645477 56 16343701019484034053
21150785 3 13551194386125183066
21267235 1 16877666763928106052
22224240 67 17346875663475286990
2297311 6 17988653981884355564
23035841 295 18187083962182765050
23402539 116 18409444791010156004
23536379 177 18202844336581147290
23559900 14 12396588467778975788
246663 6 17458067054041744650
300161 21 10663818573116243060
33532 11 18114458965038759194
3545911 37 17132116832034957180
5104073 3 17987518284877113969
57583515 80 7997969076920630916
8209 1 12396299258141034482

> <PUBCHEM_SHAPE_MULTIPOLES>
341.97
19.53
1.06
0.98
30.48
0
-0.02
-3.31
6.69
-1.37
-0.02
-0.09
-0.01
-0.56

> <PUBCHEM_SHAPE_SELFOVERLAP>
689.688

> <PUBCHEM_SHAPE_VOLUME>
200.3

> <PUBCHEM_COORDINATE_TYPE>
2
5
10

$$$$
