19221006
  -OEChem-03112303413D

 33 34  0     0  0  0  0  0  0999 V2000
    3.7952   -3.7554    0.4016 Cl  0  0  0  0  0  0  0  0  0  0  0  0
    0.0346    1.4514    0.9094 O   0  0  0  0  0  0  0  0  0  0  0  0
    0.1208    2.1118   -1.3341 O   0  0  0  0  0  0  0  0  0  0  0  0
   -4.8478   -2.2542   -0.5902 O   0  5  0  0  0  0  0  0  0  0  0  0
   -5.9160   -0.4091   -0.0669 O   0  0  0  0  0  0  0  0  0  0  0  0
   -4.8521   -1.0593   -0.2075 N   0  3  0  0  0  0  0  0  0  0  0  0
    3.0695    2.1211   -0.5795 C   0  0  0  0  0  0  0  0  0  0  0  0
    1.8924    2.7296    0.1930 C   0  0  0  0  0  0  0  0  0  0  0  0
    3.2506    0.6609   -0.3363 C   0  0  0  0  0  0  0  0  0  0  0  0
    4.0689    0.2234    0.7052 C   0  0  0  0  0  0  0  0  0  0  0  0
    2.6003   -0.2673   -1.1494 C   0  0  0  0  0  0  0  0  0  0  0  0
    0.5834    2.0841   -0.2005 C   0  0  0  0  0  0  0  0  0  0  0  0
    4.2370   -1.1423    0.9335 C   0  0  0  0  0  0  0  0  0  0  0  0
    2.7683   -1.6331   -0.9210 C   0  0  0  0  0  0  0  0  0  0  0  0
   -1.1828    0.8260    0.6318 C   0  0  0  0  0  0  0  0  0  0  0  0
    3.5866   -2.0705    0.1204 C   0  0  0  0  0  0  0  0  0  0  0  0
   -1.2032   -0.5018    0.2049 C   0  0  0  0  0  0  0  0  0  0  0  0
   -2.3782    1.5293    0.7805 C   0  0  0  0  0  0  0  0  0  0  0  0
   -3.6144   -0.4231    0.0757 C   0  0  0  0  0  0  0  0  0  0  0  0
   -2.4190   -1.1263   -0.0731 C   0  0  0  0  0  0  0  0  0  0  0  0
   -3.5940    0.9047    0.5024 C   0  0  0  0  0  0  0  0  0  0  0  0
    2.9356    2.2974   -1.6551 H   0  0  0  0  0  0  0  0  0  0  0  0
    3.9882    2.6577   -0.3099 H   0  0  0  0  0  0  0  0  0  0  0  0
    2.0506    2.6205    1.2726 H   0  0  0  0  0  0  0  0  0  0  0  0
    1.8112    3.8031   -0.0096 H   0  0  0  0  0  0  0  0  0  0  0  0
    4.5790    0.9366    1.3472 H   0  0  0  0  0  0  0  0  0  0  0  0
    1.9652    0.0563   -1.9693 H   0  0  0  0  0  0  0  0  0  0  0  0
    4.8772   -1.4688    1.7490 H   0  0  0  0  0  0  0  0  0  0  0  0
    2.2560   -2.3449   -1.5632 H   0  0  0  0  0  0  0  0  0  0  0  0
   -0.2765   -1.0565    0.0908 H   0  0  0  0  0  0  0  0  0  0  0  0
   -2.3681    2.5637    1.1130 H   0  0  0  0  0  0  0  0  0  0  0  0
   -2.3963   -2.1619   -0.4026 H   0  0  0  0  0  0  0  0  0  0  0  0
   -4.5053    1.4835    0.6294 H   0  0  0  0  0  0  0  0  0  0  0  0
  1 16  1  0  0  0  0
  2 12  1  0  0  0  0
  2 15  1  0  0  0  0
  3 12  2  0  0  0  0
  4  6  1  0  0  0  0
  5  6  2  0  0  0  0
  6 19  1  0  0  0  0
  7  8  1  0  0  0  0
  7  9  1  0  0  0  0
  7 22  1  0  0  0  0
  7 23  1  0  0  0  0
  8 12  1  0  0  0  0
  8 24  1  0  0  0  0
  8 25  1  0  0  0  0
  9 10  2  0  0  0  0
  9 11  1  0  0  0  0
 10 13  1  0  0  0  0
 10 26  1  0  0  0  0
 11 14  2  0  0  0  0
 11 27  1  0  0  0  0
 13 16  2  0  0  0  0
 13 28  1  0  0  0  0
 14 16  1  0  0  0  0
 14 29  1  0  0  0  0
 15 17  2  0  0  0  0
 15 18  1  0  0  0  0
 17 20  1  0  0  0  0
 17 30  1  0  0  0  0
 18 21  2  0  0  0  0
 18 31  1  0  0  0  0
 19 20  2  0  0  0  0
 19 21  1  0  0  0  0
 20 32  1  0  0  0  0
 21 33  1  0  0  0  0
M  CHG  2   4  -1   6   1
M  END
> <PUBCHEM_COMPOUND_CID>
19221006

> <PUBCHEM_CONFORMER_RMSD>
0.8

> <PUBCHEM_CONFORMER_DIVERSEORDER>
1
6
63
21
35
55
19
32
16
47
11
29
24
22
7
25
39
68
65
38
46
52
42
30
18
53
67
43
57
62
54
48
51
37
3
50
34
10
13
28
45
20
14
17
66
64
5
26
12
4
8
56
58
59
44
9
41
60
23
2
27
33
61
36
40
31
15
49

> <PUBCHEM_MMFF94_PARTIAL_CHARGES>
29
1 -0.18
10 -0.15
11 -0.15
12 0.66
13 -0.15
14 -0.15
15 0.08
16 0.18
17 -0.15
18 -0.15
19 0.13
2 -0.23
20 -0.15
21 -0.15
26 0.15
27 0.15
28 0.15
29 0.15
3 -0.57
30 0.15
31 0.15
32 0.15
33 0.15
4 -0.52
5 -0.52
6 0.91
7 0.14
8 0.06
9 -0.14

> <PUBCHEM_EFFECTIVE_ROTOR_COUNT>
6

> <PUBCHEM_PHARMACOPHORE_FEATURES>
6
1 3 acceptor
1 4 acceptor
1 4 anion
1 5 acceptor
6 15 17 18 19 20 21 rings
6 9 10 11 13 14 16 rings

> <PUBCHEM_HEAVY_ATOM_COUNT>
21

> <PUBCHEM_ATOM_DEF_STEREO_COUNT>
0

> <PUBCHEM_ATOM_UDEF_STEREO_COUNT>
0

> <PUBCHEM_BOND_DEF_STEREO_COUNT>
0

> <PUBCHEM_BOND_UDEF_STEREO_COUNT>
0

> <PUBCHEM_ISOTOPIC_ATOM_COUNT>
0

> <PUBCHEM_COMPONENT_COUNT>
1

> <PUBCHEM_CACTVS_TAUTO_COUNT>
1

> <PUBCHEM_CONFORMER_ID>
01254A0E00000001

> <PUBCHEM_MMFF94_ENERGY>
58.565

> <PUBCHEM_FEATURE_SELFOVERLAP>
30.528

> <PUBCHEM_SHAPE_FINGERPRINT>
10062212 137 18202284697752118501
11045977 3 11743849096430844277
11595378 159 15697182702189969211
11796584 16 17917721253019170685
12107183 9 18053110523275008017
12410352 35 18272650181759682095
12422481 6 17985011244643806377
12553582 1 18264789687381032368
12596599 1 17914629266981040442
12617007 42 16950282952775469933
12633257 1 17841443531268835898
13083527 12 18334286566446792928
13533116 47 18412546548172802265
14251739 40 18409169926135657431
14251740 57 17917718984907758158
14429115 67 18339925917892191206
14508693 111 15909915236747328991
14848160 33 18409730659912535502
15183329 4 18272939319665073349
15250474 111 18200868612643916503
15342816 4 18340778069731778302
15352361 1 18337953377173773762
15848702 151 18334011696670555341
17134984 74 18122618624857989935
17492 89 18413393115886180095
17818456 19 18057339292271976609
17857418 61 18272367603250481313
1813 80 17894636928446792468
19141452 34 18195812868805150257
20369508 70 17846217833958334321
20626108 58 18411411804701684528
20645477 70 18261672670415822056
21285901 2 17676198095875714956
22224240 67 18200021989080808664
2255824 54 18191596443977109756
23559900 14 18197776806962608249
3004659 81 18409732871678203188
3014965 18 18409444791959611135
33824 294 18339926038599590324
3680242 22 18341342102212624155
463206 1 18127408067248482455
5104073 3 18271815635507487193
5207 123 18336825282158607533
556388 4 18411418431609439994
56633871 153 17908995300628332499
59682541 52 18193810783380848287
6433294 58 18265337385421010186
6823239 73 17559698186424919508
76465 3 18335136449789448976
8988823 20 17346306133457992193
960060 61 17967259710263510188
9709674 26 18410020956599052427

> <PUBCHEM_SHAPE_MULTIPOLES>
405.58
10.78
3.39
0.99
10.07
0.97
-0.08
7.41
0.35
-3.11
-0.09
-0.47
-0.11
-1.05

> <PUBCHEM_SHAPE_SELFOVERLAP>
855.37

> <PUBCHEM_SHAPE_VOLUME>
228.5

> <PUBCHEM_COORDINATE_TYPE>
2
5
10

$$$$
