567162
  -OEChem-03112304393D

 32 32  0     0  0  0  0  0  0999 V2000
    0.4560   -0.1922   -1.1754 O   0  0  0  0  0  0  0  0  0  0  0  0
    1.0820    0.1123    1.0571 O   0  0  0  0  0  0  0  0  0  0  0  0
   -5.4216    1.2165    0.5153 O   0  5  0  0  0  0  0  0  0  0  0  0
   -5.4523   -0.9608    0.7938 O   0  0  0  0  0  0  0  0  0  0  0  0
   -4.8570    0.0967    0.4743 N   0  3  0  0  0  0  0  0  0  0  0  0
    5.2569   -0.0402   -0.2202 C   0  0  0  0  0  0  0  0  0  0  0  0
    3.8466   -0.0145    0.3773 C   0  0  0  0  0  0  0  0  0  0  0  0
    6.3205    0.1433    0.8626 C   0  0  0  0  0  0  0  0  0  0  0  0
    2.7596   -0.1622   -0.6869 C   0  0  0  0  0  0  0  0  0  0  0  0
    7.7206    0.1631    0.2701 C   0  0  0  0  0  0  0  0  0  0  0  0
    1.3585   -0.0694   -0.1210 C   0  0  0  0  0  0  0  0  0  0  0  0
   -0.8762   -0.1200   -0.7617 C   0  0  0  0  0  0  0  0  0  0  0  0
   -1.4898    1.1125   -0.7202 C   0  0  0  0  0  0  0  0  0  0  0  0
   -1.5250   -1.2835   -0.4117 C   0  0  0  0  0  0  0  0  0  0  0  0
   -3.5030    0.0238    0.0531 C   0  0  0  0  0  0  0  0  0  0  0  0
   -2.8202    1.1852   -0.3074 C   0  0  0  0  0  0  0  0  0  0  0  0
   -2.8555   -1.2107    0.0010 C   0  0  0  0  0  0  0  0  0  0  0  0
    5.4184   -0.9920   -0.7407 H   0  0  0  0  0  0  0  0  0  0  0  0
    5.3512    0.7575   -0.9670 H   0  0  0  0  0  0  0  0  0  0  0  0
    3.7445   -0.8183    1.1172 H   0  0  0  0  0  0  0  0  0  0  0  0
    3.6981    0.9282    0.9194 H   0  0  0  0  0  0  0  0  0  0  0  0
    6.1467    1.0824    1.4008 H   0  0  0  0  0  0  0  0  0  0  0  0
    6.2496   -0.6688    1.5954 H   0  0  0  0  0  0  0  0  0  0  0  0
    2.8722    0.6310   -1.4349 H   0  0  0  0  0  0  0  0  0  0  0  0
    2.8630   -1.1339   -1.1826 H   0  0  0  0  0  0  0  0  0  0  0  0
    8.4652    0.2936    1.0616 H   0  0  0  0  0  0  0  0  0  0  0  0
    7.8338    0.9869   -0.4419 H   0  0  0  0  0  0  0  0  0  0  0  0
    7.9392   -0.7744   -0.2510 H   0  0  0  0  0  0  0  0  0  0  0  0
   -0.9583    2.0161   -1.0017 H   0  0  0  0  0  0  0  0  0  0  0  0
   -1.0208   -2.2439   -0.4531 H   0  0  0  0  0  0  0  0  0  0  0  0
   -3.2925    2.1639   -0.2792 H   0  0  0  0  0  0  0  0  0  0  0  0
   -3.3556   -2.1362    0.2743 H   0  0  0  0  0  0  0  0  0  0  0  0
  1 11  1  0  0  0  0
  1 12  1  0  0  0  0
  2 11  2  0  0  0  0
  3  5  1  0  0  0  0
  4  5  2  0  0  0  0
  5 15  1  0  0  0  0
  6  7  1  0  0  0  0
  6  8  1  0  0  0  0
  6 18  1  0  0  0  0
  6 19  1  0  0  0  0
  7  9  1  0  0  0  0
  7 20  1  0  0  0  0
  7 21  1  0  0  0  0
  8 10  1  0  0  0  0
  8 22  1  0  0  0  0
  8 23  1  0  0  0  0
  9 11  1  0  0  0  0
  9 24  1  0  0  0  0
  9 25  1  0  0  0  0
 10 26  1  0  0  0  0
 10 27  1  0  0  0  0
 10 28  1  0  0  0  0
 12 13  2  0  0  0  0
 12 14  1  0  0  0  0
 13 16  1  0  0  0  0
 13 29  1  0  0  0  0
 14 17  2  0  0  0  0
 14 30  1  0  0  0  0
 15 16  2  0  0  0  0
 15 17  1  0  0  0  0
 16 31  1  0  0  0  0
 17 32  1  0  0  0  0
M  CHG  2   3  -1   5   1
M  END
> <PUBCHEM_COMPOUND_CID>
567162

> <PUBCHEM_CONFORMER_RMSD>
0.8

> <PUBCHEM_CONFORMER_DIVERSEORDER>
1
48
61
26
33
30
19
18
52
54
34
59
39
14
5
45
7
64
11
28
60
21
58
2
16
41
42
53
44
8
51
13
49
50
40
23
3
20
56
36
9
32
31
62
29
10
4
27
37
46
15
17
22
24
47
25
55
38
6
35
63
43
12
57

> <PUBCHEM_MMFF94_PARTIAL_CHARGES>
17
1 -0.23
11 0.66
12 0.08
13 -0.15
14 -0.15
15 0.13
16 -0.15
17 -0.15
2 -0.57
29 0.15
3 -0.52
30 0.15
31 0.15
32 0.15
4 -0.52
5 0.91
9 0.06

> <PUBCHEM_EFFECTIVE_ROTOR_COUNT>
7

> <PUBCHEM_PHARMACOPHORE_FEATURES>
7
1 10 hydrophobe
1 2 acceptor
1 3 acceptor
1 3 anion
1 4 acceptor
4 6 7 8 9 hydrophobe
6 12 13 14 15 16 17 rings

> <PUBCHEM_HEAVY_ATOM_COUNT>
17

> <PUBCHEM_ATOM_DEF_STEREO_COUNT>
0

> <PUBCHEM_ATOM_UDEF_STEREO_COUNT>
0

> <PUBCHEM_BOND_DEF_STEREO_COUNT>
0

> <PUBCHEM_BOND_UDEF_STEREO_COUNT>
0

> <PUBCHEM_ISOTOPIC_ATOM_COUNT>
0

> <PUBCHEM_COMPONENT_COUNT>
1

> <PUBCHEM_CACTVS_TAUTO_COUNT>
1

> <PUBCHEM_CONFORMER_ID>
0008A77A00000001

> <PUBCHEM_MMFF94_ENERGY>
37.2687

> <PUBCHEM_FEATURE_SELFOVERLAP>
35.602

> <PUBCHEM_SHAPE_FINGERPRINT>
106641 1 18412550937940667419
11089746 13 13830128399763878802
11315181 36 17676207982990546205
11401426 45 14476958995614000030
12091667 2 17989485229828020823
12236239 1 17385728001705743956
13288520 33 11674879991879124783
13533116 47 17749661910590151762
13668630 136 13912322365870875392
13862211 1 15140955150397522120
13964095 4 8430323432888452091
1420 363 15213019341362739864
14251718 22 8358259250655301296
14251764 18 18202561787003113886
14350574 20 13840266992167456886
15048467 5 17917711297042450112
15183329 4 11599733883175755236
15242439 84 9079112259216629310
15716309 27 17240480304464663498
17834072 8 12391510888975271034
17834076 25 15052013468472050764
1813 80 16588030057097766102
187816 3 9871749091957703903
200 152 14562527379617083413
20281389 69 16917065556224152616
20645477 56 17988638592810448412
20645477 70 12324504425923607616
21150785 3 13901901211373399173
220451 1 18187642514670112370
22224240 67 18131350821619813639
2297311 6 18409175385424316644
23035841 295 16443345381980090226
23402539 116 18334852839923926599
26918003 58 16443350879480310497
29717793 49 10807938189524797360
300161 21 13614518559366795172
3545911 37 18273495663715771510
5104073 3 18189344630708485904
542803 24 14836404727001363886
57583515 80 10879992467399462620
59755656 520 16343980312617099238

> <PUBCHEM_SHAPE_MULTIPOLES>
321.39
16.3
1.08
0.94
22.54
0
-0.02
1.04
5.08
-1.43
-0.04
0.08
0
0.14

> <PUBCHEM_SHAPE_SELFOVERLAP>
651.879

> <PUBCHEM_SHAPE_VOLUME>
187.4

> <PUBCHEM_COORDINATE_TYPE>
2
5
10

$$$$
