61078590
  -OEChem-03112304393D

 38 39  0     0  0  0  0  0  0999 V2000
    0.4623   -0.7359   -0.7465 O   0  0  0  0  0  0  0  0  0  0  0  0
   -6.1482    0.7325   -1.2441 O   0  5  0  0  0  0  0  0  0  0  0  0
   -6.2645   -1.1542   -0.1277 O   0  0  0  0  0  0  0  0  0  0  0  0
   -5.6302   -0.1395   -0.5054 N   0  3  0  0  0  0  0  0  0  0  0  0
    4.6891   -0.3759    0.0906 C   0  0  0  0  0  0  0  0  0  0  0  0
    5.1812    1.0677    0.0716 C   0  0  0  0  0  0  0  0  0  0  0  0
    5.6787   -1.0693   -0.8406 C   0  0  0  0  0  0  0  0  0  0  0  0
    6.7006    0.9387    0.1022 C   0  0  0  0  0  0  0  0  0  0  0  0
    7.0214   -0.4321   -0.4961 C   0  0  0  0  0  0  0  0  0  0  0  0
    3.2445   -0.5220   -0.3547 C   0  0  0  0  0  0  0  0  0  0  0  0
    2.2576    0.1037    0.6302 C   0  0  0  0  0  0  0  0  0  0  0  0
    0.7976   -0.0913    0.2461 C   0  0  0  0  0  0  0  0  0  0  0  0
   -0.2141    0.5319    1.1927 C   0  0  0  0  0  0  0  0  0  0  0  0
   -1.6409    0.3550    0.7446 C   0  0  0  0  0  0  0  0  0  0  0  0
   -2.2380    1.3109   -0.0773 C   0  0  0  0  0  0  0  0  0  0  0  0
   -2.3656   -0.7650    1.1520 C   0  0  0  0  0  0  0  0  0  0  0  0
   -3.5597    1.1469   -0.4916 C   0  0  0  0  0  0  0  0  0  0  0  0
   -3.6874   -0.9290    0.7379 C   0  0  0  0  0  0  0  0  0  0  0  0
   -4.2844    0.0269   -0.0840 C   0  0  0  0  0  0  0  0  0  0  0  0
    4.8073   -0.7869    1.1026 H   0  0  0  0  0  0  0  0  0  0  0  0
    4.8718    1.5764   -0.8498 H   0  0  0  0  0  0  0  0  0  0  0  0
    4.8116    1.6520    0.9198 H   0  0  0  0  0  0  0  0  0  0  0  0
    5.6925   -2.1547   -0.7016 H   0  0  0  0  0  0  0  0  0  0  0  0
    5.4332   -0.8683   -1.8908 H   0  0  0  0  0  0  0  0  0  0  0  0
    7.0666    0.9868    1.1343 H   0  0  0  0  0  0  0  0  0  0  0  0
    7.1813    1.7494   -0.4545 H   0  0  0  0  0  0  0  0  0  0  0  0
    7.6611   -0.3507   -1.3808 H   0  0  0  0  0  0  0  0  0  0  0  0
    7.5564   -1.0424    0.2406 H   0  0  0  0  0  0  0  0  0  0  0  0
    3.0110   -1.5891   -0.4638 H   0  0  0  0  0  0  0  0  0  0  0  0
    3.1013   -0.0773   -1.3479 H   0  0  0  0  0  0  0  0  0  0  0  0
    2.3985   -0.3361    1.6241 H   0  0  0  0  0  0  0  0  0  0  0  0
    2.4328    1.1826    0.7009 H   0  0  0  0  0  0  0  0  0  0  0  0
   -0.0785    0.0852    2.1848 H   0  0  0  0  0  0  0  0  0  0  0  0
    0.0125    1.6006    1.2860 H   0  0  0  0  0  0  0  0  0  0  0  0
   -1.6826    2.1866   -0.4027 H   0  0  0  0  0  0  0  0  0  0  0  0
   -1.9103   -1.5173    1.7907 H   0  0  0  0  0  0  0  0  0  0  0  0
   -3.9920    1.9117   -1.1318 H   0  0  0  0  0  0  0  0  0  0  0  0
   -4.2212   -1.8141    1.0746 H   0  0  0  0  0  0  0  0  0  0  0  0
  1 12  2  0  0  0  0
  2  4  1  0  0  0  0
  3  4  2  0  0  0  0
  4 19  1  0  0  0  0
  5  6  1  0  0  0  0
  5  7  1  0  0  0  0
  5 10  1  0  0  0  0
  5 20  1  0  0  0  0
  6  8  1  0  0  0  0
  6 21  1  0  0  0  0
  6 22  1  0  0  0  0
  7  9  1  0  0  0  0
  7 23  1  0  0  0  0
  7 24  1  0  0  0  0
  8  9  1  0  0  0  0
  8 25  1  0  0  0  0
  8 26  1  0  0  0  0
  9 27  1  0  0  0  0
  9 28  1  0  0  0  0
 10 11  1  0  0  0  0
 10 29  1  0  0  0  0
 10 30  1  0  0  0  0
 11 12  1  0  0  0  0
 11 31  1  0  0  0  0
 11 32  1  0  0  0  0
 12 13  1  0  0  0  0
 13 14  1  0  0  0  0
 13 33  1  0  0  0  0
 13 34  1  0  0  0  0
 14 15  2  0  0  0  0
 14 16  1  0  0  0  0
 15 17  1  0  0  0  0
 15 35  1  0  0  0  0
 16 18  2  0  0  0  0
 16 36  1  0  0  0  0
 17 19  2  0  0  0  0
 17 37  1  0  0  0  0
 18 19  1  0  0  0  0
 18 38  1  0  0  0  0
M  CHG  2   2  -1   4   1
M  END
> <PUBCHEM_COMPOUND_CID>
61078590

> <PUBCHEM_CONFORMER_RMSD>
0.8

> <PUBCHEM_CONFORMER_DIVERSEORDER>
1
14
84
41
5
44
32
16
36
19
66
112
85
105
48
79
22
39
18
61
15
6
83
72
76
35
102
53
64
45
110
47
73
12
91
88
104
62
94
86
115
8
111
67
24
99
97
77
2
37
81
90
80
71
107
21
13
68
26
33
28
34
9
4
93
54
51
49
7
42
56
98
38
46
63
58
27
11
92
75
114
20
3
74
78
43
101
31
40
50
69
82
96
30
57
23
87
55
70
113
89
29
25
106
109
103
59
100
10
65
108
95
60
17
52

> <PUBCHEM_MMFF94_PARTIAL_CHARGES>
17
1 -0.57
11 0.06
12 0.45
13 0.2
14 -0.14
15 -0.15
16 -0.15
17 -0.15
18 -0.15
19 0.13
2 -0.52
3 -0.52
35 0.15
36 0.15
37 0.15
38 0.15
4 0.91

> <PUBCHEM_EFFECTIVE_ROTOR_COUNT>
7

> <PUBCHEM_PHARMACOPHORE_FEATURES>
6
1 1 acceptor
1 2 acceptor
1 2 anion
1 3 acceptor
5 5 6 7 8 9 rings
6 14 15 16 17 18 19 rings

> <PUBCHEM_HEAVY_ATOM_COUNT>
19

> <PUBCHEM_ATOM_DEF_STEREO_COUNT>
0

> <PUBCHEM_ATOM_UDEF_STEREO_COUNT>
0

> <PUBCHEM_BOND_DEF_STEREO_COUNT>
0

> <PUBCHEM_BOND_UDEF_STEREO_COUNT>
0

> <PUBCHEM_ISOTOPIC_ATOM_COUNT>
0

> <PUBCHEM_COMPONENT_COUNT>
1

> <PUBCHEM_CACTVS_TAUTO_COUNT>
3

> <PUBCHEM_CONFORMER_ID>
03A3FC3E00000001

> <PUBCHEM_MMFF94_ENERGY>
40.4422

> <PUBCHEM_FEATURE_SELFOVERLAP>
30.529

> <PUBCHEM_SHAPE_FINGERPRINT>
10 15 18339916113626450136
10087517 78 16443338737681794173
10299344 5 14405188374417000268
10638233 991 15984821584325527104
10968037 39 18335139800053733387
11089746 13 15864072091495951180
11315181 36 18259992582172771584
117890 112 16298387959518179820
12091667 2 17530967986440958003
12166972 35 17989489636792157736
12236239 1 15051732006000505785
12516196 113 17561081406454805624
12596602 18 11530773608534108140
12714333 28 17530963579176862200
12916748 109 12391516373854431282
13288520 33 16271924918056139209
13533116 47 16878213174627096528
13668630 136 17775570831918755982
13862211 1 16845293822129436650
14123256 10 17632859733113147906
1420 363 14980238444437622462
14251718 22 18410292510454367378
14251764 18 12107794016234148785
14251764 46 13326855526556122868
14350574 20 17275101734662618160
15048467 5 15864070966383324500
15183329 4 17894912902187218048
15348495 7 9294989268386397262
15537594 2 15267057021615387524
15716309 27 14620795994363120174
17834076 25 15574433228169657834
17844677 252 18130796637879383376
1813 80 15697729172211522312
19489759 90 17894915122379354824
200 152 17632577141360531609
20281389 69 12540694829649818806
20645477 70 17988087682584437278
21150785 3 18273496797497609748
21267235 1 14261350284408427369
21315759 40 16128661838717781742
220451 1 11241974789534808800
22224240 67 8358255943478145225
23035841 295 15913608371560993798
23081809 10 17418103092027265514
23198884 109 18113617859363426937
23402539 116 17385724720435333443
23522609 53 16055779679456940504
23559900 14 18334855068964668913
2767999 5 15719390637878599812
2838139 119 14634866457738972543
300161 21 17167579388997308826
3009799 131 18187081758548167532
34797466 226 18410580604276504492
351380 3 15769772442411665516
3545911 37 17821730528701274040
4072396 5 14634863159462239936
4325135 7 17775567541947316492
474229 33 17846782909883488086
57583515 80 17603867805810827258
59755656 215 18113900442573965154

> <PUBCHEM_SHAPE_MULTIPOLES>
368.42
18.89
1.18
1.01
10.29
0.1
0.07
-0.84
-5.13
-0.08
-0.06
-0.56
-0.02
0.97

> <PUBCHEM_SHAPE_SELFOVERLAP>
763.075

> <PUBCHEM_SHAPE_VOLUME>
211.6

> <PUBCHEM_COORDINATE_TYPE>
2
5
10

$$$$
