68668202
  -OEChem-03112304393D

 45 46  0     0  0  0  0  0  0999 V2000
   -0.2942   -1.1864    0.9784 O   0  0  0  0  0  0  0  0  0  0  0  0
   -1.0942   -3.2120    0.1232 O   0  0  0  0  0  0  0  0  0  0  0  0
   -6.0954    1.1762    0.2125 O   0  5  0  0  0  0  0  0  0  0  0  0
   -5.2219    1.6678   -1.7406 O   0  0  0  0  0  0  0  0  0  0  0  0
   -5.1339    1.1666   -0.5937 N   0  3  0  0  0  0  0  0  0  0  0  0
    3.1165   -1.5916   -0.6773 C   0  0  0  0  0  0  0  0  0  0  0  0
    2.3056   -2.8014   -1.1460 C   0  0  0  0  0  0  0  0  0  0  0  0
    3.4667   -0.6143   -1.8065 C   0  0  0  0  0  0  0  0  0  0  0  0
    1.8989   -3.7442   -0.0064 C   0  0  0  0  0  0  0  0  0  0  0  0
    4.3027    0.6041   -1.3921 C   0  0  0  0  0  0  0  0  0  0  0  0
    1.1006   -3.0947    1.1220 C   0  0  0  0  0  0  0  0  0  0  0  0
    3.6345    1.5252   -0.4016 C   0  0  0  0  0  0  0  0  0  0  0  0
   -0.2275   -2.5395    0.6679 C   0  0  0  0  0  0  0  0  0  0  0  0
    2.8511    2.5868   -0.8547 C   0  0  0  0  0  0  0  0  0  0  0  0
    3.8001    1.3154    0.9673 C   0  0  0  0  0  0  0  0  0  0  0  0
    2.2334    3.4384    0.0613 C   0  0  0  0  0  0  0  0  0  0  0  0
    3.1826    2.1669    1.8832 C   0  0  0  0  0  0  0  0  0  0  0  0
    2.3993    3.2285    1.4302 C   0  0  0  0  0  0  0  0  0  0  0  0
   -1.5000   -0.6008    0.5866 C   0  0  0  0  0  0  0  0  0  0  0  0
   -2.5827   -0.5786    1.4658 C   0  0  0  0  0  0  0  0  0  0  0  0
   -1.6215   -0.0375   -0.6837 C   0  0  0  0  0  0  0  0  0  0  0  0
   -3.7868    0.0069    1.0747 C   0  0  0  0  0  0  0  0  0  0  0  0
   -2.8255    0.5480   -1.0748 C   0  0  0  0  0  0  0  0  0  0  0  0
   -3.9082    0.5703   -0.1956 C   0  0  0  0  0  0  0  0  0  0  0  0
    2.5404   -1.0464    0.0750 H   0  0  0  0  0  0  0  0  0  0  0  0
    4.0384   -1.9362   -0.1939 H   0  0  0  0  0  0  0  0  0  0  0  0
    2.8919   -3.3684   -1.8793 H   0  0  0  0  0  0  0  0  0  0  0  0
    1.4051   -2.4547   -1.6675 H   0  0  0  0  0  0  0  0  0  0  0  0
    2.5360   -0.2674   -2.2738 H   0  0  0  0  0  0  0  0  0  0  0  0
    4.0199   -1.1593   -2.5816 H   0  0  0  0  0  0  0  0  0  0  0  0
    1.3165   -4.5691   -0.4352 H   0  0  0  0  0  0  0  0  0  0  0  0
    2.8043   -4.1915    0.4220 H   0  0  0  0  0  0  0  0  0  0  0  0
    4.5635    1.1774   -2.2914 H   0  0  0  0  0  0  0  0  0  0  0  0
    5.2610    0.2637   -0.9785 H   0  0  0  0  0  0  0  0  0  0  0  0
    0.8819   -3.8422    1.8944 H   0  0  0  0  0  0  0  0  0  0  0  0
    1.6874   -2.3181    1.6232 H   0  0  0  0  0  0  0  0  0  0  0  0
    2.7124    2.7590   -1.9187 H   0  0  0  0  0  0  0  0  0  0  0  0
    4.4089    0.4931    1.3337 H   0  0  0  0  0  0  0  0  0  0  0  0
    1.6226    4.2643   -0.2913 H   0  0  0  0  0  0  0  0  0  0  0  0
    3.3115    2.0034    2.9491 H   0  0  0  0  0  0  0  0  0  0  0  0
    1.9181    3.8912    2.1435 H   0  0  0  0  0  0  0  0  0  0  0  0
   -2.4934   -1.0153    2.4568 H   0  0  0  0  0  0  0  0  0  0  0  0
   -0.7804   -0.0513   -1.3717 H   0  0  0  0  0  0  0  0  0  0  0  0
   -4.6088    0.0060    1.7859 H   0  0  0  0  0  0  0  0  0  0  0  0
   -2.8834    0.9773   -2.0717 H   0  0  0  0  0  0  0  0  0  0  0  0
  1 13  1  0  0  0  0
  1 19  1  0  0  0  0
  2 13  2  0  0  0  0
  3  5  1  0  0  0  0
  4  5  2  0  0  0  0
  5 24  1  0  0  0  0
  6  7  1  0  0  0  0
  6  8  1  0  0  0  0
  6 25  1  0  0  0  0
  6 26  1  0  0  0  0
  7  9  1  0  0  0  0
  7 27  1  0  0  0  0
  7 28  1  0  0  0  0
  8 10  1  0  0  0  0
  8 29  1  0  0  0  0
  8 30  1  0  0  0  0
  9 11  1  0  0  0  0
  9 31  1  0  0  0  0
  9 32  1  0  0  0  0
 10 12  1  0  0  0  0
 10 33  1  0  0  0  0
 10 34  1  0  0  0  0
 11 13  1  0  0  0  0
 11 35  1  0  0  0  0
 11 36  1  0  0  0  0
 12 14  2  0  0  0  0
 12 15  1  0  0  0  0
 14 16  1  0  0  0  0
 14 37  1  0  0  0  0
 15 17  2  0  0  0  0
 15 38  1  0  0  0  0
 16 18  2  0  0  0  0
 16 39  1  0  0  0  0
 17 18  1  0  0  0  0
 17 40  1  0  0  0  0
 18 41  1  0  0  0  0
 19 20  2  0  0  0  0
 19 21  1  0  0  0  0
 20 22  1  0  0  0  0
 20 42  1  0  0  0  0
 21 23  2  0  0  0  0
 21 43  1  0  0  0  0
 22 24  2  0  0  0  0
 22 44  1  0  0  0  0
 23 24  1  0  0  0  0
 23 45  1  0  0  0  0
M  CHG  2   3  -1   5   1
M  END
> <PUBCHEM_COMPOUND_CID>
68668202

> <PUBCHEM_CONFORMER_RMSD>
1.2

> <PUBCHEM_CONFORMER_DIVERSEORDER>
2
11
33
17
70
13
73
67
64
74
92
99
88
36
109
72
4
51
77
117
21
101
1
5
91
52
110
35
54
37
25
96
39
12
27
57
80
10
47
93
16
75
46
8
102
31
38
78
30
69
94
3
79
114
84
104
44
48
87
97
82
115
53
18
45
29
26
34
113
112
63
28
23
59
24
111
76
90
50
40
81
22
32
56
106
66
9
14
108
41
116
58
98
103
118
55
95
19
49
60
15
20
85
83
89
65
43
105
6
107
100
62
7
61
68
42
71
86

> <PUBCHEM_MMFF94_PARTIAL_CHARGES>
29
1 -0.23
10 0.14
11 0.06
12 -0.14
13 0.66
14 -0.15
15 -0.15
16 -0.15
17 -0.15
18 -0.15
19 0.08
2 -0.57
20 -0.15
21 -0.15
22 -0.15
23 -0.15
24 0.13
3 -0.52
37 0.15
38 0.15
39 0.15
4 -0.52
40 0.15
41 0.15
42 0.15
43 0.15
44 0.15
45 0.15
5 0.91

> <PUBCHEM_EFFECTIVE_ROTOR_COUNT>
10

> <PUBCHEM_PHARMACOPHORE_FEATURES>
8
1 2 acceptor
1 3 acceptor
1 3 anion
1 4 acceptor
3 6 8 10 hydrophobe
3 7 9 11 hydrophobe
6 12 14 15 16 17 18 rings
6 19 20 21 22 23 24 rings

> <PUBCHEM_HEAVY_ATOM_COUNT>
24

> <PUBCHEM_ATOM_DEF_STEREO_COUNT>
0

> <PUBCHEM_ATOM_UDEF_STEREO_COUNT>
0

> <PUBCHEM_BOND_DEF_STEREO_COUNT>
0

> <PUBCHEM_BOND_UDEF_STEREO_COUNT>
0

> <PUBCHEM_ISOTOPIC_ATOM_COUNT>
0

> <PUBCHEM_COMPONENT_COUNT>
1

> <PUBCHEM_CACTVS_TAUTO_COUNT>
1

> <PUBCHEM_CONFORMER_ID>
0417CB2A00000002

> <PUBCHEM_MMFF94_ENERGY>
57.8616

> <PUBCHEM_FEATURE_SELFOVERLAP>
40.678

> <PUBCHEM_SHAPE_FINGERPRINT>
10675989 125 18343865519578926648
12100795 323 17976261558163476372
12633257 1 18262507225959585256
12769317 202 18336553733136388270
13402501 40 18334017172780329340
13773456 73 17968089833131966075
14251764 38 18124025995340482926
14931854 50 18195546817482690028
151778 21 18191885602433755744
17093844 170 18410294727101188388
17921350 177 17822558521619879404
17980427 23 18053909980103726978
21860390 5 18272092639270521414
21968339 14 18265886973941858654
23559900 14 18334303054177084396
238 59 17631181955821062998
238918 7 18116968070998511188
3187 122 17182222955365765826
3298306 158 18408603677752919045
3524813 1 18114473253735368750
4371632 12 17915732274949579241
474 4 18342737437896209962
495365 180 18411979161206999270
508706 21 18050296057265594118
5312625 73 18410298012766695231
532947 4 18410011018339966045
54672768 99 18336837506189874604
574716 61 17917421034583686389
7808743 9 17825404122152371292
9980921 177 8213030378166210005

> <PUBCHEM_SHAPE_MULTIPOLES>
465.45
10.43
4.68
1.68
12.84
2.15
0.02
-7.9
-2.77
-4.45
0.85
-0.58
-0.42
2.18

> <PUBCHEM_SHAPE_SELFOVERLAP>
966.485

> <PUBCHEM_SHAPE_VOLUME>
263.6

> <PUBCHEM_COORDINATE_TYPE>
2
5
10

$$$$
