69125108
  -OEChem-03112304393D

 40 40  0     0  0  0  0  0  0999 V2000
   -4.7056    0.5326   -0.0786 O   0  0  0  0  0  0  0  0  0  0  0  0
   -2.1250    1.5920    0.1398 O   0  0  0  0  0  0  0  0  0  0  0  0
    1.3658    1.7128   -0.6783 O   0  0  0  0  0  0  0  0  0  0  0  0
    0.1102    0.1432    0.5197 O   0  0  0  0  0  0  0  0  0  0  0  0
    6.1936   -2.3493   -0.5318 O   0  5  0  0  0  0  0  0  0  0  0  0
    6.5725   -1.2378    1.3230 O   0  0  0  0  0  0  0  0  0  0  0  0
    5.8923   -1.4507    0.2904 N   0  3  0  0  0  0  0  0  0  0  0  0
   -6.0259   -1.4629   -0.1695 C   0  0  0  0  0  0  0  0  0  0  0  0
   -7.2450   -2.1966    0.3820 C   0  0  0  0  0  0  0  0  0  0  0  0
   -5.8439   -0.1022    0.4876 C   0  0  0  0  0  0  0  0  0  0  0  0
   -4.4819    1.8130    0.4964 C   0  0  0  0  0  0  0  0  0  0  0  0
   -7.4481   -3.5363   -0.3074 C   0  0  0  0  0  0  0  0  0  0  0  0
   -3.2445    2.4271   -0.1296 C   0  0  0  0  0  0  0  0  0  0  0  0
   -0.9374    2.1093   -0.4439 C   0  0  0  0  0  0  0  0  0  0  0  0
    2.4937    0.9247   -0.4373 C   0  0  0  0  0  0  0  0  0  0  0  0
    0.2052    1.1809   -0.1219 C   0  0  0  0  0  0  0  0  0  0  0  0
    2.8477   -0.0802   -1.3376 C   0  0  0  0  0  0  0  0  0  0  0  0
    3.2656    1.1424    0.7040 C   0  0  0  0  0  0  0  0  0  0  0  0
    4.7457   -0.6496    0.0446 C   0  0  0  0  0  0  0  0  0  0  0  0
    3.9737   -0.8673   -1.0966 C   0  0  0  0  0  0  0  0  0  0  0  0
    4.3914    0.3551    0.9450 C   0  0  0  0  0  0  0  0  0  0  0  0
   -5.1203   -2.0642   -0.0202 H   0  0  0  0  0  0  0  0  0  0  0  0
   -6.1215   -1.3303   -1.2546 H   0  0  0  0  0  0  0  0  0  0  0  0
   -7.1257   -2.3592    1.4594 H   0  0  0  0  0  0  0  0  0  0  0  0
   -8.1433   -1.5835    0.2438 H   0  0  0  0  0  0  0  0  0  0  0  0
   -6.7313    0.5189    0.3182 H   0  0  0  0  0  0  0  0  0  0  0  0
   -5.6982   -0.2238    1.5674 H   0  0  0  0  0  0  0  0  0  0  0  0
   -5.3494    2.4579    0.3187 H   0  0  0  0  0  0  0  0  0  0  0  0
   -4.3303    1.6970    1.5759 H   0  0  0  0  0  0  0  0  0  0  0  0
   -6.5795   -4.1868   -0.1637 H   0  0  0  0  0  0  0  0  0  0  0  0
   -8.3255   -4.0451    0.1040 H   0  0  0  0  0  0  0  0  0  0  0  0
   -7.6051   -3.4046   -1.3827 H   0  0  0  0  0  0  0  0  0  0  0  0
   -3.0717    3.4259    0.2859 H   0  0  0  0  0  0  0  0  0  0  0  0
   -3.3782    2.5029   -1.2150 H   0  0  0  0  0  0  0  0  0  0  0  0
   -0.7192    3.0963   -0.0229 H   0  0  0  0  0  0  0  0  0  0  0  0
   -1.0514    2.1621   -1.5316 H   0  0  0  0  0  0  0  0  0  0  0  0
    2.2501   -0.2537   -2.2284 H   0  0  0  0  0  0  0  0  0  0  0  0
    2.9946    1.9241    1.4084 H   0  0  0  0  0  0  0  0  0  0  0  0
    4.2193   -1.6409   -1.8198 H   0  0  0  0  0  0  0  0  0  0  0  0
    4.9689    0.5532    1.8443 H   0  0  0  0  0  0  0  0  0  0  0  0
  1 10  1  0  0  0  0
  1 11  1  0  0  0  0
  2 13  1  0  0  0  0
  2 14  1  0  0  0  0
  3 15  1  0  0  0  0
  3 16  1  0  0  0  0
  4 16  2  0  0  0  0
  5  7  1  0  0  0  0
  6  7  2  0  0  0  0
  7 19  1  0  0  0  0
  8  9  1  0  0  0  0
  8 10  1  0  0  0  0
  8 22  1  0  0  0  0
  8 23  1  0  0  0  0
  9 12  1  0  0  0  0
  9 24  1  0  0  0  0
  9 25  1  0  0  0  0
 10 26  1  0  0  0  0
 10 27  1  0  0  0  0
 11 13  1  0  0  0  0
 11 28  1  0  0  0  0
 11 29  1  0  0  0  0
 12 30  1  0  0  0  0
 12 31  1  0  0  0  0
 12 32  1  0  0  0  0
 13 33  1  0  0  0  0
 13 34  1  0  0  0  0
 14 16  1  0  0  0  0
 14 35  1  0  0  0  0
 14 36  1  0  0  0  0
 15 17  2  0  0  0  0
 15 18  1  0  0  0  0
 17 20  1  0  0  0  0
 17 37  1  0  0  0  0
 18 21  2  0  0  0  0
 18 38  1  0  0  0  0
 19 20  2  0  0  0  0
 19 21  1  0  0  0  0
 20 39  1  0  0  0  0
 21 40  1  0  0  0  0
M  CHG  2   5  -1   7   1
M  END
> <PUBCHEM_COMPOUND_CID>
69125108

> <PUBCHEM_CONFORMER_RMSD>
1

> <PUBCHEM_CONFORMER_DIVERSEORDER>
1
6
54
7
36
8
53
41
10
19
9
21
56
22
35
26
33
20
31
55
46
52
5
3
47
18
37
13
51
34
39
17
40
44
14
48
28
32
4
27
29
38
49
25
15
45
16
12
42
24
30
50
11
2
43
23

> <PUBCHEM_MMFF94_PARTIAL_CHARGES>
22
1 -0.56
10 0.28
11 0.28
13 0.28
14 0.34
15 0.08
16 0.66
17 -0.15
18 -0.15
19 0.13
2 -0.56
20 -0.15
21 -0.15
3 -0.23
37 0.15
38 0.15
39 0.15
4 -0.57
40 0.15
5 -0.52
6 -0.52
7 0.91

> <PUBCHEM_EFFECTIVE_ROTOR_COUNT>
11

> <PUBCHEM_PHARMACOPHORE_FEATURES>
8
1 1 acceptor
1 12 hydrophobe
1 2 acceptor
1 4 acceptor
1 5 acceptor
1 5 anion
1 6 acceptor
6 15 17 18 19 20 21 rings

> <PUBCHEM_HEAVY_ATOM_COUNT>
21

> <PUBCHEM_ATOM_DEF_STEREO_COUNT>
0

> <PUBCHEM_ATOM_UDEF_STEREO_COUNT>
0

> <PUBCHEM_BOND_DEF_STEREO_COUNT>
0

> <PUBCHEM_BOND_UDEF_STEREO_COUNT>
0

> <PUBCHEM_ISOTOPIC_ATOM_COUNT>
0

> <PUBCHEM_COMPONENT_COUNT>
1

> <PUBCHEM_CACTVS_TAUTO_COUNT>
1

> <PUBCHEM_CONFORMER_ID>
041EC3F400000001

> <PUBCHEM_MMFF94_ENERGY>
47.7287

> <PUBCHEM_FEATURE_SELFOVERLAP>
40.69

> <PUBCHEM_SHAPE_FINGERPRINT>
10378564 45 11674871187238788408
12895837 130 9223228555905802315
13167372 99 10231753379689376276
13862211 1 18334577953885782281
14211702 104 18411990134959730039
14251751 18 18343021077473218657
14598715 104 11170492278321677998
14671636 106 18410576189282323726
14931854 50 17677039244816938315
15183329 4 14779263099327076133
15188451 53 18413386536502262413
18222031 100 17458345230056856284
20028762 73 18410294709298924403
20281389 69 10303817579661500501
20526848 3 10087645905554171075
21054139 6 18040997319308498643
21130935 74 18271243807983550882
21197605 99 18343022220140969030
21424621 283 10519988171183773045
21585483 132 17532077337444197794
21623969 137 17489870410125467284
21637258 2 17531525374549179736
22289505 5 11891339746733473684
229767 44 17845653772194141335
23522609 53 18046945672999973165
270888 7 9655306921532882093
2748736 6 9799426473322267787
312425 54 17845666841604815193
406291 66 18336264643721167235
465052 167 18129943369938168836
5104073 3 15481801594138430588
5718773 13 18410572920717272331
5874358 3 17168964739315326154
5937810 71 11602826757281138279
59682541 52 13912588460084395993
6328613 192 9151175355134322715
636775 72 9294702282788161566
7062679 6 10015863180722424297
7970288 3 18338797940075804031

> <PUBCHEM_SHAPE_MULTIPOLES>
391.97
21.44
3.13
0.98
19.93
1.28
-0.03
22.58
3.04
5.11
-0.24
-1.17
0.1
-0.29

> <PUBCHEM_SHAPE_SELFOVERLAP>
784.69

> <PUBCHEM_SHAPE_VOLUME>
230.2

> <PUBCHEM_COORDINATE_TYPE>
2
5
10

$$$$
