70396
  -OEChem-03112304393D

 27 28  0     0  0  0  0  0  0999 V2000
   -0.6617    0.4168    0.5285 O   0  0  0  0  0  0  0  0  0  0  0  0
   -0.9209   -1.0185   -1.2904 O   0  0  0  0  0  0  0  0  0  0  0  0
    5.4569    0.7275   -0.8315 O   0  5  0  0  0  0  0  0  0  0  0  0
    5.4519   -0.9998    0.5233 O   0  0  0  0  0  0  0  0  0  0  0  0
    4.8525   -0.0819   -0.0871 N   0  3  0  0  0  0  0  0  0  0  0  0
    0.7217    0.2916    0.3741 C   0  0  0  0  0  0  0  0  0  0  0  0
   -2.8330   -0.1300   -0.1766 C   0  0  0  0  0  0  0  0  0  0  0  0
    3.4470    0.0452    0.0698 C   0  0  0  0  0  0  0  0  0  0  0  0
    1.3787    1.1831   -0.4443 C   0  0  0  0  0  0  0  0  0  0  0  0
    1.3732   -0.7181    1.0463 C   0  0  0  0  0  0  0  0  0  0  0  0
    2.7593    1.0582   -0.5985 C   0  0  0  0  0  0  0  0  0  0  0  0
    2.7539   -0.8430    0.8921 C   0  0  0  0  0  0  0  0  0  0  0  0
   -1.4071   -0.3082   -0.3988 C   0  0  0  0  0  0  0  0  0  0  0  0
   -3.7223   -1.1558   -0.4967 C   0  0  0  0  0  0  0  0  0  0  0  0
   -3.3116    1.0671    0.3560 C   0  0  0  0  0  0  0  0  0  0  0  0
   -5.0901   -0.9847   -0.2839 C   0  0  0  0  0  0  0  0  0  0  0  0
   -4.6795    1.2382    0.5688 C   0  0  0  0  0  0  0  0  0  0  0  0
   -5.5688    0.2123    0.2489 C   0  0  0  0  0  0  0  0  0  0  0  0
    0.8429    1.9716   -0.9634 H   0  0  0  0  0  0  0  0  0  0  0  0
    0.8332   -1.4085    1.6866 H   0  0  0  0  0  0  0  0  0  0  0  0
    3.2661    1.7681   -1.2472 H   0  0  0  0  0  0  0  0  0  0  0  0
    3.2562   -1.6442    1.4282 H   0  0  0  0  0  0  0  0  0  0  0  0
   -3.3658   -2.0958   -0.9099 H   0  0  0  0  0  0  0  0  0  0  0  0
   -2.6447    1.8890    0.6026 H   0  0  0  0  0  0  0  0  0  0  0  0
   -5.7828   -1.7835   -0.5325 H   0  0  0  0  0  0  0  0  0  0  0  0
   -5.0528    2.1713    0.9807 H   0  0  0  0  0  0  0  0  0  0  0  0
   -6.6339    0.3457    0.4141 H   0  0  0  0  0  0  0  0  0  0  0  0
  1  6  1  0  0  0  0
  1 13  1  0  0  0  0
  2 13  2  0  0  0  0
  3  5  1  0  0  0  0
  4  5  2  0  0  0  0
  5  8  1  0  0  0  0
  6  9  2  0  0  0  0
  6 10  1  0  0  0  0
  7 13  1  0  0  0  0
  7 14  2  0  0  0  0
  7 15  1  0  0  0  0
  8 11  2  0  0  0  0
  8 12  1  0  0  0  0
  9 11  1  0  0  0  0
  9 19  1  0  0  0  0
 10 12  2  0  0  0  0
 10 20  1  0  0  0  0
 11 21  1  0  0  0  0
 12 22  1  0  0  0  0
 14 16  1  0  0  0  0
 14 23  1  0  0  0  0
 15 17  2  0  0  0  0
 15 24  1  0  0  0  0
 16 18  2  0  0  0  0
 16 25  1  0  0  0  0
 17 18  1  0  0  0  0
 17 26  1  0  0  0  0
 18 27  1  0  0  0  0
M  CHG  2   3  -1   5   1
M  END
> <PUBCHEM_COMPOUND_CID>
70396

> <PUBCHEM_CONFORMER_RMSD>
0.6

> <PUBCHEM_CONFORMER_DIVERSEORDER>
1
14
22
20
15
9
11
13
7
16
18
3
8
2
10
23
12
4
5
19
6
21
17

> <PUBCHEM_MMFF94_PARTIAL_CHARGES>
27
1 -0.23
10 -0.15
11 -0.15
12 -0.15
13 0.63
14 -0.15
15 -0.15
16 -0.15
17 -0.15
18 -0.15
19 0.15
2 -0.57
20 0.15
21 0.15
22 0.15
23 0.15
24 0.15
25 0.15
26 0.15
27 0.15
3 -0.52
4 -0.52
5 0.91
6 0.08
7 0.09
8 0.13
9 -0.15

> <PUBCHEM_EFFECTIVE_ROTOR_COUNT>
4

> <PUBCHEM_PHARMACOPHORE_FEATURES>
6
1 2 acceptor
1 3 acceptor
1 3 anion
1 4 acceptor
6 6 8 9 10 11 12 rings
6 7 14 15 16 17 18 rings

> <PUBCHEM_HEAVY_ATOM_COUNT>
18

> <PUBCHEM_ATOM_DEF_STEREO_COUNT>
0

> <PUBCHEM_ATOM_UDEF_STEREO_COUNT>
0

> <PUBCHEM_BOND_DEF_STEREO_COUNT>
0

> <PUBCHEM_BOND_UDEF_STEREO_COUNT>
0

> <PUBCHEM_ISOTOPIC_ATOM_COUNT>
0

> <PUBCHEM_COMPONENT_COUNT>
1

> <PUBCHEM_CACTVS_TAUTO_COUNT>
1

> <PUBCHEM_CONFORMER_ID>
000112FC00000001

> <PUBCHEM_MMFF94_ENERGY>
62.457

> <PUBCHEM_FEATURE_SELFOVERLAP>
30.528

> <PUBCHEM_SHAPE_FINGERPRINT>
10354089 29 18259706691937921641
10366900 7 16081082693212871073
11401426 45 9583517620547146363
11471102 20 17676205784336406160
11796584 16 17346884433835617222
12107183 9 17687742736323777257
12236239 1 18409731754986699689
13167823 11 18409447007603664027
13675066 3 17632573868316026391
13760787 19 18410853261601064347
14123238 8 18334012795797022221
1420 363 15213021535415866387
14386348 63 15985108517583022005
14573314 32 16917076520584828740
15788980 27 16702019785680654149
17834072 33 18408603681836844293
17844677 252 17703792543577398489
19489759 90 17560799923030331465
200 152 18261110781414132137
20279233 1 15626508310816856981
20612939 158 17894634794185572124
20645477 70 16878214269564448426
20681677 155 18343017821803898146
21033648 29 15697707117532903707
21267235 1 18410580608603048795
21641784 216 16660937564970428580
2297311 6 17847068791807679113
23402539 116 16988555801850963901
23402655 69 18041273284137612797
23536379 177 18342740702298143290
23559900 14 16558745750291882416
26918003 58 13542464284821804159
29717793 49 18413669106220633509
300161 21 18334568040953647969
3004659 81 18272376330956791302
34797466 226 17346044475872055916
351380 180 13614520757567390675
3545911 37 18202566159901942991
42 15 18343300370711953455
4214541 1 18412544306258110313
42788 4 18411419513898812192
474 4 17825388736931462813
5104073 3 18271245027294996233
542803 24 18412263938871142153
77779 3 18408604773169955177
9981440 41 17256524648220022896

> <PUBCHEM_SHAPE_MULTIPOLES>
341.97
12.95
1.25
0.93
1.46
0.07
-0.01
-0.33
-0.04
-0.37
-0.03
0.17
-0.1
-1.19

> <PUBCHEM_SHAPE_SELFOVERLAP>
741.817

> <PUBCHEM_SHAPE_VOLUME>
184.6

> <PUBCHEM_COORDINATE_TYPE>
2
5
10

$$$$
