77859
  -OEChem-03112304393D

 29 29  0     0  0  0  0  0  0999 V2000
   -1.3997    0.0080    0.7693 O   0  0  0  0  0  0  0  0  0  0  0  0
   -1.7200   -0.0089   -1.5411 O   0  0  0  0  0  0  0  0  0  0  0  0
    4.6874    1.0930   -0.3076 O   0  5  0  0  0  0  0  0  0  0  0  0
    4.6847   -1.1022   -0.2909 O   0  0  0  0  0  0  0  0  0  0  0  0
    4.0872   -0.0030   -0.1941 N   0  3  0  0  0  0  0  0  0  0  0  0
   -3.6531    0.0048   -0.0410 C   0  0  0  0  0  0  0  0  0  0  0  0
   -3.9816    1.2632    0.7732 C   0  0  0  0  0  0  0  0  0  0  0  0
   -4.4888   -0.0361   -1.3271 C   0  0  0  0  0  0  0  0  0  0  0  0
   -3.9785   -1.2366    0.8051 C   0  0  0  0  0  0  0  0  0  0  0  0
   -2.1620    0.0010   -0.3982 C   0  0  0  0  0  0  0  0  0  0  0  0
   -0.0240    0.0051    0.5278 C   0  0  0  0  0  0  0  0  0  0  0  0
    0.6286    1.2119    0.4053 C   0  0  0  0  0  0  0  0  0  0  0  0
    0.6272   -1.2040    0.4218 C   0  0  0  0  0  0  0  0  0  0  0  0
    2.6887    0.0005    0.0522 C   0  0  0  0  0  0  0  0  0  0  0  0
    2.0025    1.2096    0.1643 C   0  0  0  0  0  0  0  0  0  0  0  0
    2.0012   -1.2063    0.1809 C   0  0  0  0  0  0  0  0  0  0  0  0
   -3.4413    1.2866    1.7263 H   0  0  0  0  0  0  0  0  0  0  0  0
   -3.7041    2.1686    0.2211 H   0  0  0  0  0  0  0  0  0  0  0  0
   -5.0524    1.3209    0.9978 H   0  0  0  0  0  0  0  0  0  0  0  0
   -4.2840    0.8355   -1.9597 H   0  0  0  0  0  0  0  0  0  0  0  0
   -5.5615   -0.0409   -1.1041 H   0  0  0  0  0  0  0  0  0  0  0  0
   -4.2656   -0.9309   -1.9197 H   0  0  0  0  0  0  0  0  0  0  0  0
   -3.4441   -1.2294    1.7618 H   0  0  0  0  0  0  0  0  0  0  0  0
   -5.0501   -1.2964    1.0259 H   0  0  0  0  0  0  0  0  0  0  0  0
   -3.6898   -2.1549    0.2807 H   0  0  0  0  0  0  0  0  0  0  0  0
    0.0940    2.1525    0.4935 H   0  0  0  0  0  0  0  0  0  0  0  0
    0.0915   -2.1428    0.5227 H   0  0  0  0  0  0  0  0  0  0  0  0
    2.5052    2.1688    0.0696 H   0  0  0  0  0  0  0  0  0  0  0  0
    2.5026   -2.1673    0.0994 H   0  0  0  0  0  0  0  0  0  0  0  0
  1 10  1  0  0  0  0
  1 11  1  0  0  0  0
  2 10  2  0  0  0  0
  3  5  1  0  0  0  0
  4  5  2  0  0  0  0
  5 14  1  0  0  0  0
  6  7  1  0  0  0  0
  6  8  1  0  0  0  0
  6  9  1  0  0  0  0
  6 10  1  0  0  0  0
  7 17  1  0  0  0  0
  7 18  1  0  0  0  0
  7 19  1  0  0  0  0
  8 20  1  0  0  0  0
  8 21  1  0  0  0  0
  8 22  1  0  0  0  0
  9 23  1  0  0  0  0
  9 24  1  0  0  0  0
  9 25  1  0  0  0  0
 11 12  2  0  0  0  0
 11 13  1  0  0  0  0
 12 15  1  0  0  0  0
 12 26  1  0  0  0  0
 13 16  2  0  0  0  0
 13 27  1  0  0  0  0
 14 15  2  0  0  0  0
 14 16  1  0  0  0  0
 15 28  1  0  0  0  0
 16 29  1  0  0  0  0
M  CHG  2   3  -1   5   1
M  END
> <PUBCHEM_COMPOUND_CID>
77859

> <PUBCHEM_CONFORMER_RMSD>
0.6

> <PUBCHEM_CONFORMER_DIVERSEORDER>
1
9
8
7
5
6
4
2
3

> <PUBCHEM_MMFF94_PARTIAL_CHARGES>
17
1 -0.23
10 0.66
11 0.08
12 -0.15
13 -0.15
14 0.13
15 -0.15
16 -0.15
2 -0.57
26 0.15
27 0.15
28 0.15
29 0.15
3 -0.52
4 -0.52
5 0.91
6 0.06

> <PUBCHEM_EFFECTIVE_ROTOR_COUNT>
4

> <PUBCHEM_PHARMACOPHORE_FEATURES>
6
1 2 acceptor
1 3 acceptor
1 3 anion
1 4 acceptor
4 6 7 8 9 hydrophobe
6 11 12 13 14 15 16 rings

> <PUBCHEM_HEAVY_ATOM_COUNT>
16

> <PUBCHEM_ATOM_DEF_STEREO_COUNT>
0

> <PUBCHEM_ATOM_UDEF_STEREO_COUNT>
0

> <PUBCHEM_BOND_DEF_STEREO_COUNT>
0

> <PUBCHEM_BOND_UDEF_STEREO_COUNT>
0

> <PUBCHEM_ISOTOPIC_ATOM_COUNT>
0

> <PUBCHEM_COMPONENT_COUNT>
1

> <PUBCHEM_CACTVS_TAUTO_COUNT>
1

> <PUBCHEM_CONFORMER_ID>
0001302300000001

> <PUBCHEM_MMFF94_ENERGY>
50.7382

> <PUBCHEM_FEATURE_SELFOVERLAP>
30.527

> <PUBCHEM_SHAPE_FINGERPRINT>
10680689 15 17418095425373446307
11401426 45 18342734126824597400
11471102 20 18409164415908926688
12236239 1 17846501426553829689
13214271 11 15647053755519240479
13675066 3 17989486329176144368
13760787 5 18410856542744776498
14576447 43 18130495418468378183
14911166 2 18410015446788838838
14943859 89 16805322206103518848
14993402 34 17846493742456416965
17834072 33 17988637523532455181
18186145 218 18187362129781398329
19422 9 18060136574411552501
200 152 18202562882535960731
20279233 1 17385439908696223811
20645477 70 18410856521254739382
21119208 17 17775283863219755556
221490 88 18193562400325591475
231179 274 17385715894177189956
23402539 116 17632293449917146656
23402655 69 18411697673229400629
23557571 272 17022904510579281455
23559900 14 16515682200585145490
465052 167 17273410798181822703
4990 188 18272095984997069726
5104073 3 18410857654898681608
77779 3 18410578387667009457
9981440 41 16978403151840364656

> <PUBCHEM_SHAPE_MULTIPOLES>
300.81
9.68
1.32
1
1.81
0.01
-0.23
-0.03
-1.37
0.3
0.24
-1.05
-0.01
-0.02

> <PUBCHEM_SHAPE_SELFOVERLAP>
624.506

> <PUBCHEM_SHAPE_VOLUME>
172.5

> <PUBCHEM_COORDINATE_TYPE>
2
5
10

$$$$
