11528845
  -OEChem-02052300473D

 30 31  0     0  0  0  0  0  0999 V2000
    0.7852   -0.7893    0.0007 O   0  0  0  0  0  0  0  0  0  0  0  0
   -0.2118   -2.8641   -0.0007 O   0  0  0  0  0  0  0  0  0  0  0  0
   -5.2556    2.5027    0.0006 O   0  0  0  0  0  0  0  0  0  0  0  0
    3.1284   -0.3276   -0.0005 C   0  0  0  0  0  0  0  0  0  0  0  0
    2.0797   -1.4008   -0.0009 C   0  0  0  0  0  0  0  0  0  0  0  0
   -1.5473   -0.8890    0.0009 C   0  0  0  0  0  0  0  0  0  0  0  0
    3.6089    0.1658   -1.2083 C   0  0  0  0  0  0  0  0  0  0  0  0
    3.6103    0.1635    1.2077 C   0  0  0  0  0  0  0  0  0  0  0  0
   -2.7622   -1.5742   -0.0004 C   0  0  0  0  0  0  0  0  0  0  0  0
   -1.5333    0.5058    0.0014 C   0  0  0  0  0  0  0  0  0  0  0  0
   -0.2955   -1.6285    0.0006 C   0  0  0  0  0  0  0  0  0  0  0  0
   -3.9492    0.5301   -0.0004 C   0  0  0  0  0  0  0  0  0  0  0  0
   -3.9632   -0.8647   -0.0010 C   0  0  0  0  0  0  0  0  0  0  0  0
   -2.7343    1.2153    0.0007 C   0  0  0  0  0  0  0  0  0  0  0  0
    4.5839    1.1632   -1.2079 C   0  0  0  0  0  0  0  0  0  0  0  0
    4.5852    1.1610    1.2080 C   0  0  0  0  0  0  0  0  0  0  0  0
    5.0720    1.6610    0.0002 C   0  0  0  0  0  0  0  0  0  0  0  0
   -5.2012    1.2697   -0.0005 C   0  0  0  0  0  0  0  0  0  0  0  0
    2.1860   -2.0366   -0.8886 H   0  0  0  0  0  0  0  0  0  0  0  0
    2.1873   -2.0384    0.8854 H   0  0  0  0  0  0  0  0  0  0  0  0
    3.2340   -0.2131   -2.1551 H   0  0  0  0  0  0  0  0  0  0  0  0
    3.2365   -0.2171    2.1542 H   0  0  0  0  0  0  0  0  0  0  0  0
   -2.7955   -2.6606   -0.0011 H   0  0  0  0  0  0  0  0  0  0  0  0
   -0.6118    1.0811    0.0022 H   0  0  0  0  0  0  0  0  0  0  0  0
   -4.9018   -1.4128   -0.0020 H   0  0  0  0  0  0  0  0  0  0  0  0
   -2.6999    2.3017    0.0012 H   0  0  0  0  0  0  0  0  0  0  0  0
    4.9626    1.5530   -2.1483 H   0  0  0  0  0  0  0  0  0  0  0  0
    4.9650    1.5491    2.1487 H   0  0  0  0  0  0  0  0  0  0  0  0
    5.8309    2.4379    0.0005 H   0  0  0  0  0  0  0  0  0  0  0  0
   -6.1291    0.6726   -0.0013 H   0  0  0  0  0  0  0  0  0  0  0  0
  1  5  1  0  0  0  0
  1 11  1  0  0  0  0
  2 11  2  0  0  0  0
  3 18  2  0  0  0  0
  4  5  1  0  0  0  0
  4  7  2  0  0  0  0
  4  8  1  0  0  0  0
  5 19  1  0  0  0  0
  5 20  1  0  0  0  0
  6  9  2  0  0  0  0
  6 10  1  0  0  0  0
  6 11  1  0  0  0  0
  7 15  1  0  0  0  0
  7 21  1  0  0  0  0
  8 16  2  0  0  0  0
  8 22  1  0  0  0  0
  9 13  1  0  0  0  0
  9 23  1  0  0  0  0
 10 14  2  0  0  0  0
 10 24  1  0  0  0  0
 12 13  2  0  0  0  0
 12 14  1  0  0  0  0
 12 18  1  0  0  0  0
 13 25  1  0  0  0  0
 14 26  1  0  0  0  0
 15 17  2  0  0  0  0
 15 27  1  0  0  0  0
 16 17  1  0  0  0  0
 16 28  1  0  0  0  0
 17 29  1  0  0  0  0
 18 30  1  0  0  0  0
M  END
> <PUBCHEM_COMPOUND_CID>
11528845

> <PUBCHEM_CONFORMER_RMSD>
0.6

> <PUBCHEM_CONFORMER_DIVERSEORDER>
1
20
28
43
7
17
27
45
8
19
6
46
33
39
44
34
5
35
31
32
36
3
16
42
40
41
2
11
25
23
12
15
10
21
24
30
38
9
26
4
29
18
37
22
13
14

> <PUBCHEM_MMFF94_PARTIAL_CHARGES>
28
1 -0.43
10 -0.15
11 0.63
12 0.09
13 -0.15
14 -0.15
15 -0.15
16 -0.15
17 -0.15
18 0.42
2 -0.57
21 0.15
22 0.15
23 0.15
24 0.15
25 0.15
26 0.15
27 0.15
28 0.15
29 0.15
3 -0.57
30 0.06
4 -0.14
5 0.42
6 0.09
7 -0.15
8 -0.15
9 -0.15

> <PUBCHEM_EFFECTIVE_ROTOR_COUNT>
5

> <PUBCHEM_PHARMACOPHORE_FEATURES>
4
1 2 acceptor
1 3 acceptor
6 4 7 8 15 16 17 rings
6 6 9 10 12 13 14 rings

> <PUBCHEM_HEAVY_ATOM_COUNT>
18

> <PUBCHEM_ATOM_DEF_STEREO_COUNT>
0

> <PUBCHEM_ATOM_UDEF_STEREO_COUNT>
0

> <PUBCHEM_BOND_DEF_STEREO_COUNT>
0

> <PUBCHEM_BOND_UDEF_STEREO_COUNT>
0

> <PUBCHEM_ISOTOPIC_ATOM_COUNT>
0

> <PUBCHEM_COMPONENT_COUNT>
1

> <PUBCHEM_CACTVS_TAUTO_COUNT>
1

> <PUBCHEM_CONFORMER_ID>
00AFEA8D00000001

> <PUBCHEM_MMFF94_ENERGY>
48.6823

> <PUBCHEM_FEATURE_SELFOVERLAP>
20.297

> <PUBCHEM_SHAPE_FINGERPRINT>
10014705 185 18410571773907996925
10378564 45 17988371369189224004
10411042 1 17617941774112893443
10498660 4 18272092703557750600
10670039 82 18335713710838061012
12390115 104 18272102582314574483
12596602 18 16950284043676037800
12633257 1 15791736338349110604
12788726 201 17318465554292967002
13675066 3 12757144701467862390
1420 369 8790882986396940612
14341114 328 17313104180765215024
14528608 73 18273490165756894493
14790565 3 17911526394293117633
15196674 1 18410573980861927495
15238133 3 18335979848776564648
15342168 16 18334016081520863663
15885798 251 8935000373490861718
17834072 32 18410014350918310516
1798214 20 11815897847025166076
1798214 55 18411138034922481334
18186145 218 17561089124284403834
18222031 100 8574706905816695963
20388580 30 10951757595212569530
20645477 56 18341615966311899274
20645477 70 16486712337189116558
212847 35 18411698768994518496
22289505 5 17847064385361325912
22646028 28 10303820877974538878
23227448 37 18128251383849744228
23403322 49 9439406830533599883
235170 7 16415484852090367300
23557571 272 18128830800702906518
23559900 14 18127407843710125719
270888 7 18410011030919432500
2916195 48 18201713011503148432
316301 35 8285666186108201616
341906 21 18409727400243224464
3472631 163 18412546530508026565
34797466 226 17275105067689283981
350125 39 18263925437024384374
3680242 22 18334295327536596480
4028521 119 18059859488701559810
465052 167 8430308065247703368
474 4 18040722454259952451
5104073 3 18261959544541022971
5924683 9 14563103592883274001
59682541 52 16629966503805982477
633830 44 18411415072977079215
67856867 119 18338227150889410187
7064713 232 18334294270853205420
76465 3 9367338224336662019
7808743 9 18264771141902288692
960060 61 13614520770726508216
9981440 41 18334295379139735235

> <PUBCHEM_SHAPE_MULTIPOLES>
352.82
12.64
2.27
0.94
0.17
0.36
0
-9.05
0
-1.62
0
1.4
-0.2
0

> <PUBCHEM_SHAPE_SELFOVERLAP>
757

> <PUBCHEM_SHAPE_VOLUME>
194.4

> <PUBCHEM_COORDINATE_TYPE>
2
5
10

$$$$
