12732528
  -OEChem-02052300473D

 36 36  0     1  0  0  0  0  0999 V2000
   -1.2889   -0.9657    0.3938 O   0  0  0  0  0  0  0  0  0  0  0  0
   -2.8826   -0.3475   -1.1601 O   0  0  0  0  0  0  0  0  0  0  0  0
    1.0752   -0.4599    0.4351 C   0  0  2  0  0  0  0  0  0  0  0  0
   -0.2981   -0.1002   -0.1553 C   0  0  2  0  0  0  0  0  0  0  0  0
    2.1463    0.5358   -0.0287 C   0  0  0  0  0  0  0  0  0  0  0  0
    0.3902    2.3368   -0.3153 C   0  0  2  0  0  0  0  0  0  0  0  0
   -0.6821    1.3484    0.1536 C   0  0  0  0  0  0  0  0  0  0  0  0
    1.7549    1.9783    0.2846 C   0  0  0  0  0  0  0  0  0  0  0  0
    1.4842   -1.8889    0.0679 C   0  0  0  0  0  0  0  0  0  0  0  0
    0.0006    3.7686    0.0474 C   0  0  0  0  0  0  0  0  0  0  0  0
    1.6169   -2.0326   -1.4451 C   0  0  0  0  0  0  0  0  0  0  0  0
    2.7891   -2.2649    0.7630 C   0  0  0  0  0  0  0  0  0  0  0  0
   -2.5632   -0.7667   -0.0558 C   0  0  0  0  0  0  0  0  0  0  0  0
   -3.5425   -1.1416    1.0150 C   0  0  0  0  0  0  0  0  0  0  0  0
    0.9955   -0.4058    1.5304 H   0  0  0  0  0  0  0  0  0  0  0  0
   -0.2929   -0.2106   -1.2449 H   0  0  0  0  0  0  0  0  0  0  0  0
    2.3146    0.4797   -1.1085 H   0  0  0  0  0  0  0  0  0  0  0  0
    3.1064    0.3428    0.4602 H   0  0  0  0  0  0  0  0  0  0  0  0
    0.4645    2.2751   -1.4093 H   0  0  0  0  0  0  0  0  0  0  0  0
   -0.8502    1.4568    1.2341 H   0  0  0  0  0  0  0  0  0  0  0  0
   -1.6338    1.6197   -0.3168 H   0  0  0  0  0  0  0  0  0  0  0  0
    1.7337    2.1184    1.3730 H   0  0  0  0  0  0  0  0  0  0  0  0
    2.5241    2.6552   -0.1065 H   0  0  0  0  0  0  0  0  0  0  0  0
    0.7120   -2.5862    0.4163 H   0  0  0  0  0  0  0  0  0  0  0  0
   -0.0920    3.8942    1.1316 H   0  0  0  0  0  0  0  0  0  0  0  0
    0.7528    4.4784   -0.3126 H   0  0  0  0  0  0  0  0  0  0  0  0
   -0.9583    4.0377   -0.4078 H   0  0  0  0  0  0  0  0  0  0  0  0
    2.4175   -1.4267   -1.8766 H   0  0  0  0  0  0  0  0  0  0  0  0
    1.8749   -3.0734   -1.6803 H   0  0  0  0  0  0  0  0  0  0  0  0
    0.6881   -1.8343   -1.9838 H   0  0  0  0  0  0  0  0  0  0  0  0
    3.6588   -1.7563    0.3360 H   0  0  0  0  0  0  0  0  0  0  0  0
    2.9712   -3.3405    0.6558 H   0  0  0  0  0  0  0  0  0  0  0  0
    2.7476   -2.0472    1.8354 H   0  0  0  0  0  0  0  0  0  0  0  0
   -3.3863   -0.5133    1.8955 H   0  0  0  0  0  0  0  0  0  0  0  0
   -3.4267   -2.1980    1.2697 H   0  0  0  0  0  0  0  0  0  0  0  0
   -4.5603   -0.9807    0.6482 H   0  0  0  0  0  0  0  0  0  0  0  0
  1  4  1  0  0  0  0
  1 13  1  0  0  0  0
  2 13  2  0  0  0  0
  3  4  1  0  0  0  0
  3  5  1  0  0  0  0
  3  9  1  0  0  0  0
  3 15  1  0  0  0  0
  4  7  1  0  0  0  0
  4 16  1  0  0  0  0
  5  8  1  0  0  0  0
  5 17  1  0  0  0  0
  5 18  1  0  0  0  0
  6  7  1  0  0  0  0
  6  8  1  0  0  0  0
  6 10  1  0  0  0  0
  6 19  1  0  0  0  0
  7 20  1  0  0  0  0
  7 21  1  0  0  0  0
  8 22  1  0  0  0  0
  8 23  1  0  0  0  0
  9 11  1  0  0  0  0
  9 12  1  0  0  0  0
  9 24  1  0  0  0  0
 10 25  1  0  0  0  0
 10 26  1  0  0  0  0
 10 27  1  0  0  0  0
 11 28  1  0  0  0  0
 11 29  1  0  0  0  0
 11 30  1  0  0  0  0
 12 31  1  0  0  0  0
 12 32  1  0  0  0  0
 12 33  1  0  0  0  0
 13 14  1  0  0  0  0
 14 34  1  0  0  0  0
 14 35  1  0  0  0  0
 14 36  1  0  0  0  0
M  END
> <PUBCHEM_COMPOUND_CID>
12732528

> <PUBCHEM_CONFORMER_RMSD>
0.6

> <PUBCHEM_CONFORMER_DIVERSEORDER>
1
18
39
24
38
36
5
17
29
41
7
37
25
32
22
23
30
6
12
4
3
28
31
27
11
2
8
40
13
33
16
15
21
20
9
14
19
26
34
10
35

> <PUBCHEM_MMFF94_PARTIAL_CHARGES>
5
1 -0.43
13 0.66
14 0.06
2 -0.57
4 0.28

> <PUBCHEM_EFFECTIVE_ROTOR_COUNT>
4.2

> <PUBCHEM_PHARMACOPHORE_FEATURES>
3
1 2 acceptor
3 9 11 12 hydrophobe
6 3 4 5 6 7 8 rings

> <PUBCHEM_HEAVY_ATOM_COUNT>
14

> <PUBCHEM_ATOM_DEF_STEREO_COUNT>
1

> <PUBCHEM_ATOM_UDEF_STEREO_COUNT>
2

> <PUBCHEM_BOND_DEF_STEREO_COUNT>
0

> <PUBCHEM_BOND_UDEF_STEREO_COUNT>
0

> <PUBCHEM_ISOTOPIC_ATOM_COUNT>
0

> <PUBCHEM_COMPONENT_COUNT>
1

> <PUBCHEM_CACTVS_TAUTO_COUNT>
1

> <PUBCHEM_CONFORMER_ID>
00C2487000000001

> <PUBCHEM_MMFF94_ENERGY>
29.1823

> <PUBCHEM_FEATURE_SELFOVERLAP>
15.223

> <PUBCHEM_SHAPE_FINGERPRINT>
1 1 18049159170236120805
116883 192 18054219938970410469
12532896 13 17186152068371838076
12759256 9 18268422602368576831
13140716 1 18266459802245876425
13380536 305 17977959199605335196
14817 1 12144001277686697919
15490181 7 17472133350623702504
15502708 68 18123189270986136209
16945 1 18264199399517595449
193761 8 18266456508275290640
20097449 115 18337677412207424882
20339313 130 18341344326678486275
20645476 183 17173215687655045268
20645477 70 18268989955191478271
20711985 344 17978231556350561215
20871998 184 17912071764322384238
20871998 22 18269846323803148362
21041028 32 18338243661175745081
21501502 16 18266458698755649096
21524375 3 17619629528264821165
2334 1 18410575063320273689
23419403 2 14358647124849113739
23526113 38 18188469347034190283
23557571 272 17839459982523423550
23559900 14 16974203597913426590
257057 1 18266442235766351322
2748010 2 18339353067943921213
3060560 45 18124875913175129604
3071541 236 17398380936773703890
31174 14 18262246641672199443
3250762 1 18125147239661311640
54173680 148 17904763276104214530
576247 118 18125749823129952191
7364860 26 18269002045022749579
81228 2 17978791203436955489

> <PUBCHEM_SHAPE_MULTIPOLES>
276.37
4.2
3.68
0.99
2.49
3.67
0.2
-3.66
-0.55
-0.83
-0.05
0.02
-0.51
0.27

> <PUBCHEM_SHAPE_SELFOVERLAP>
541.635

> <PUBCHEM_SHAPE_VOLUME>
165.8

> <PUBCHEM_COORDINATE_TYPE>
2
5
10

$$$$
