24212948
  -OEChem-02052300493D

 28 29  0     0  0  0  0  0  0999 V2000
    2.3940   -0.5107   -2.5046 Cl  0  0  0  0  0  0  0  0  0  0  0  0
   -1.4004    0.6251   -2.1316 Cl  0  0  0  0  0  0  0  0  0  0  0  0
    5.9368    2.0482    0.6361 Cl  0  0  0  0  0  0  0  0  0  0  0  0
   -5.9115    2.1258    0.3878 Cl  0  0  0  0  0  0  0  0  0  0  0  0
   -0.0046   -0.8246    0.1539 O   0  0  0  0  0  0  0  0  0  0  0  0
   -1.2756   -2.7357   -0.0225 O   0  0  0  0  0  0  0  0  0  0  0  0
    2.3791   -0.6919    0.2146 C   0  0  0  0  0  0  0  0  0  0  0  0
    1.1939   -1.6069    0.1179 C   0  0  0  0  0  0  0  0  0  0  0  0
    2.9817   -0.1519   -0.9217 C   0  0  0  0  0  0  0  0  0  0  0  0
    2.8763   -0.3840    1.4808 C   0  0  0  0  0  0  0  0  0  0  0  0
   -2.3283   -0.6012    0.1212 C   0  0  0  0  0  0  0  0  0  0  0  0
   -1.1866   -1.5067    0.0756 C   0  0  0  0  0  0  0  0  0  0  0  0
    4.0815    0.6960   -0.7916 C   0  0  0  0  0  0  0  0  0  0  0  0
    3.9762    0.4639    1.6109 C   0  0  0  0  0  0  0  0  0  0  0  0
   -2.5162    0.3987   -0.8330 C   0  0  0  0  0  0  0  0  0  0  0  0
   -3.2487   -0.7584    1.1574 C   0  0  0  0  0  0  0  0  0  0  0  0
    4.5788    1.0038    0.4747 C   0  0  0  0  0  0  0  0  0  0  0  0
   -3.6247    1.2416   -0.7509 C   0  0  0  0  0  0  0  0  0  0  0  0
   -4.3570    0.0845    1.2394 C   0  0  0  0  0  0  0  0  0  0  0  0
   -4.5449    1.0844    0.2854 C   0  0  0  0  0  0  0  0  0  0  0  0
    1.2195   -2.2251   -0.7860 H   0  0  0  0  0  0  0  0  0  0  0  0
    1.1913   -2.2994    0.9698 H   0  0  0  0  0  0  0  0  0  0  0  0
    2.4157   -0.7946    2.3756 H   0  0  0  0  0  0  0  0  0  0  0  0
    4.5529    1.1180   -1.6767 H   0  0  0  0  0  0  0  0  0  0  0  0
    4.3528    0.6954    2.6039 H   0  0  0  0  0  0  0  0  0  0  0  0
   -3.1142   -1.5324    1.9088 H   0  0  0  0  0  0  0  0  0  0  0  0
   -3.7729    2.0222   -1.4941 H   0  0  0  0  0  0  0  0  0  0  0  0
   -5.0657   -0.0491    2.0527 H   0  0  0  0  0  0  0  0  0  0  0  0
  1  9  1  0  0  0  0
  2 15  1  0  0  0  0
  3 17  1  0  0  0  0
  4 20  1  0  0  0  0
  5  8  1  0  0  0  0
  5 12  1  0  0  0  0
  6 12  2  0  0  0  0
  7  8  1  0  0  0  0
  7  9  2  0  0  0  0
  7 10  1  0  0  0  0
  8 21  1  0  0  0  0
  8 22  1  0  0  0  0
  9 13  1  0  0  0  0
 10 14  2  0  0  0  0
 10 23  1  0  0  0  0
 11 12  1  0  0  0  0
 11 15  2  0  0  0  0
 11 16  1  0  0  0  0
 13 17  2  0  0  0  0
 13 24  1  0  0  0  0
 14 17  1  0  0  0  0
 14 25  1  0  0  0  0
 15 18  1  0  0  0  0
 16 19  2  0  0  0  0
 16 26  1  0  0  0  0
 18 20  2  0  0  0  0
 18 27  1  0  0  0  0
 19 20  1  0  0  0  0
 19 28  1  0  0  0  0
M  END
> <PUBCHEM_COMPOUND_CID>
24212948

> <PUBCHEM_CONFORMER_RMSD>
0.6

> <PUBCHEM_CONFORMER_DIVERSEORDER>
1
122
145
87
120
96
131
183
186
105
115
124
104
166
58
119
150
88
121
129
8
103
157
149
107
81
97
109
165
158
37
137
117
136
57
148
170
176
169
75
177
3
159
99
160
173
74
80
55
110
100
72
147
175
5
182
146
56
132
71
138
108
116
118
85
140
93
42
15
94
86
130
7
60
164
156
41
163
59
123
52
45
143
185
6
43
144
168
53
20
180
92
153
70
154
184
178
167
69
19
106
181
155
174
162
51
152
142
161
21
78
134
38
151
135
54
91
77
133
90
28
46
179
89
76
49
44
63
65
23
27
68
48
73
64
66
67
114
113
39
82
13
125
79
127
171
40
111
16
112
84
172
14
83
101
102
2
4
31
17
24
29
18
22
36
35
26
11
50
25
47
10
12
9
32
61
62
30
95
98
33
128
126
34
141
139

> <PUBCHEM_MMFF94_PARTIAL_CHARGES>
26
1 -0.18
10 -0.15
11 0.09
12 0.63
13 -0.15
14 -0.15
15 0.18
16 -0.15
17 0.18
18 -0.15
19 -0.15
2 -0.18
20 0.18
23 0.15
24 0.15
25 0.15
26 0.15
27 0.15
28 0.15
3 -0.18
4 -0.18
5 -0.43
6 -0.57
7 -0.14
8 0.42
9 0.18

> <PUBCHEM_EFFECTIVE_ROTOR_COUNT>
4

> <PUBCHEM_PHARMACOPHORE_FEATURES>
3
1 6 acceptor
6 11 15 16 18 19 20 rings
6 7 9 10 13 14 17 rings

> <PUBCHEM_HEAVY_ATOM_COUNT>
20

> <PUBCHEM_ATOM_DEF_STEREO_COUNT>
0

> <PUBCHEM_ATOM_UDEF_STEREO_COUNT>
0

> <PUBCHEM_BOND_DEF_STEREO_COUNT>
0

> <PUBCHEM_BOND_UDEF_STEREO_COUNT>
0

> <PUBCHEM_ISOTOPIC_ATOM_COUNT>
0

> <PUBCHEM_COMPONENT_COUNT>
1

> <PUBCHEM_CACTVS_TAUTO_COUNT>
1

> <PUBCHEM_CONFORMER_ID>
017175D400000001

> <PUBCHEM_MMFF94_ENERGY>
51.5182

> <PUBCHEM_FEATURE_SELFOVERLAP>
15.223

> <PUBCHEM_SHAPE_FINGERPRINT>
10498660 4 18202567275960470169
11132069 177 17821733797672663183
11796584 16 8356892557929206112
12403259 118 17385726902558210645
12403814 3 17603578643217216279
12633257 1 18261667173010807180
12788726 201 17245011550153947779
12892183 10 16443612520355953738
13583140 156 16153972608546080479
13675066 3 17531238444578881394
1420 369 10665232548805322113
14341114 176 16370724799276058376
14341114 328 16660375791431733249
15188451 53 13479135713713042545
15238133 3 17676497146280554540
15342168 16 18411417280937778983
15880784 105 11674876689075745628
17870717 6 11743845772099549313
1813 80 11891341906828223467
18186145 218 18060425685555649019
19050596 39 16660369198572589787
193927 3 8502374463915418234
19862831 5 13542466475091672630
200 152 8646768893832968963
20645477 56 18410293631293287958
20645477 70 16630542725698893822
20871999 31 13686300188101127659
21033648 29 18338529572800730097
21065199 12 16805873005615474386
21637258 2 12396593944516691569
22289505 5 17561085770099490672
22393880 68 14548730733819248268
22849339 104 14117506701385526069
23227448 37 18199748201340826069
23402655 69 16128662968135749586
23403322 49 9727636107226431537
23503953 91 16732708254807782787
23557571 272 18129950107877128054
23559900 14 17460610129731888107
26918003 58 14779539110493391539
270888 7 18341891891848277784
2838139 119 17986945440232341168
2916195 48 18343582966501295641
3004659 81 12247678257754320808
312423 11 8574429872031971682
3286 77 13262399951227391582
3472631 163 18413106194985506900
34797466 226 17846786178986343061
4028521 119 17704353255926373625
465052 167 8213849414532220329
474 4 17775000206394468376
5104073 3 18113336392660296579
56616090 284 10952050061173704989
59682541 52 16343146813925941116
633830 44 17560251197887541467
7064713 232 18113625547386698069
7097593 13 16588574323552987986
76465 3 8502653718309686248
7808743 9 18338515356432742936
7970288 3 8934997075009297865
90316 7 16298670469624220597
960060 61 14548736179452755216
9709674 26 11959142243303479903

> <PUBCHEM_SHAPE_MULTIPOLES>
407.33
12.76
1.98
1.79
0.14
0.13
-0.9
-10.18
3.32
0.47
0.24
-0.83
0.04
0.87

> <PUBCHEM_SHAPE_SELFOVERLAP>
836.664

> <PUBCHEM_SHAPE_VOLUME>
238.1

> <PUBCHEM_COORDINATE_TYPE>
2
5
10

$$$$
