2734445
  -OEChem-02052300473D

 21 20  0     1  0  0  0  0  0999 V2000
   -4.4216   -0.1403    0.2062 Cl  0  0  0  0  0  0  0  0  0  0  0  0
    1.9755   -0.4863   -0.0500 O   0  0  0  0  0  0  0  0  0  0  0  0
   -1.7714    1.0614   -0.7625 O   0  0  0  0  0  0  0  0  0  0  0  0
    0.7542    1.4131    0.4224 O   0  0  0  0  0  0  0  0  0  0  0  0
   -1.6979    0.0013    0.1914 C   0  0  2  0  0  0  0  0  0  0  0  0
   -0.3574   -0.7130   -0.0022 C   0  0  0  0  0  0  0  0  0  0  0  0
   -2.8586   -0.9627   -0.0435 C   0  0  0  0  0  0  0  0  0  0  0  0
    0.8244    0.2217    0.1540 C   0  0  0  0  0  0  0  0  0  0  0  0
    3.1891    0.2630    0.0683 C   0  0  0  0  0  0  0  0  0  0  0  0
    4.3638   -0.6580   -0.1842 C   0  0  0  0  0  0  0  0  0  0  0  0
   -1.7523    0.4467    1.1912 H   0  0  0  0  0  0  0  0  0  0  0  0
   -0.2580   -1.5218    0.7299 H   0  0  0  0  0  0  0  0  0  0  0  0
   -0.3025   -1.1318   -1.0146 H   0  0  0  0  0  0  0  0  0  0  0  0
   -2.8169   -1.8110    0.6459 H   0  0  0  0  0  0  0  0  0  0  0  0
   -2.8648   -1.3384   -1.0714 H   0  0  0  0  0  0  0  0  0  0  0  0
    3.1903    1.0747   -0.6677 H   0  0  0  0  0  0  0  0  0  0  0  0
    3.2603    0.6859    1.0766 H   0  0  0  0  0  0  0  0  0  0  0  0
   -1.7327    0.6695   -1.6518 H   0  0  0  0  0  0  0  0  0  0  0  0
    5.3103   -0.1165   -0.1014 H   0  0  0  0  0  0  0  0  0  0  0  0
    4.3659   -1.4854    0.5331 H   0  0  0  0  0  0  0  0  0  0  0  0
    4.2970   -1.1029   -1.1824 H   0  0  0  0  0  0  0  0  0  0  0  0
  1  7  1  0  0  0  0
  2  8  1  0  0  0  0
  2  9  1  0  0  0  0
  3  5  1  0  0  0  0
  3 18  1  0  0  0  0
  4  8  2  0  0  0  0
  5  6  1  0  0  0  0
  5  7  1  0  0  0  0
  5 11  1  0  0  0  0
  6  8  1  0  0  0  0
  6 12  1  0  0  0  0
  6 13  1  0  0  0  0
  7 14  1  0  0  0  0
  7 15  1  0  0  0  0
  9 10  1  0  0  0  0
  9 16  1  0  0  0  0
  9 17  1  0  0  0  0
 10 19  1  0  0  0  0
 10 20  1  0  0  0  0
 10 21  1  0  0  0  0
M  END
> <PUBCHEM_COMPOUND_CID>
2734445

> <PUBCHEM_CONFORMER_RMSD>
0.6

> <PUBCHEM_CONFORMER_DIVERSEORDER>
1
69
25
56
103
79
75
82
61
36
97
107
5
80
63
104
21
2
17
114
14
43
110
105
34
67
6
74
112
89
24
92
3
98
86
108
39
113
94
44
42
29
33
88
84
22
100
18
87
90
4
72
12
77
11
71
57
102
46
47
19
20
66
115
99
13
45
109
95
116
106
27
37
26
31
96
10
81
30
118
32
73
50
48
41
7
52
70
68
83
76
117
16
38
9
54
78
101
85
64
51
59
93
55
53
111
91
28
8
60
23
62
40
35
65
49
58
15

> <PUBCHEM_MMFF94_PARTIAL_CHARGES>
10
1 -0.29
18 0.4
2 -0.43
3 -0.68
4 -0.57
5 0.28
6 0.06
7 0.29
8 0.66
9 0.28

> <PUBCHEM_EFFECTIVE_ROTOR_COUNT>
5

> <PUBCHEM_PHARMACOPHORE_FEATURES>
3
1 3 acceptor
1 3 donor
1 4 acceptor

> <PUBCHEM_HEAVY_ATOM_COUNT>
10

> <PUBCHEM_ATOM_DEF_STEREO_COUNT>
1

> <PUBCHEM_ATOM_UDEF_STEREO_COUNT>
0

> <PUBCHEM_BOND_DEF_STEREO_COUNT>
0

> <PUBCHEM_BOND_UDEF_STEREO_COUNT>
0

> <PUBCHEM_ISOTOPIC_ATOM_COUNT>
0

> <PUBCHEM_COMPONENT_COUNT>
1

> <PUBCHEM_CACTVS_TAUTO_COUNT>
1

> <PUBCHEM_CONFORMER_ID>
0029B96D00000001

> <PUBCHEM_MMFF94_ENERGY>
7.7512

> <PUBCHEM_FEATURE_SELFOVERLAP>
15.226

> <PUBCHEM_SHAPE_FINGERPRINT>
10219947 1 17561086920918311782
11062470 55 11095885964516325483
12032990 46 18413393129039535558
12932764 1 17459169915517164547
14325111 11 18408039602576023462
18342897 14 18272373070279762097
20201158 50 18412547612860870643
20719005 15 18412265029951142858
21119208 17 16950284009405800934
21293036 1 18408041818800260222
22485316 2 18272086114940787694
23402539 116 16774075155711538681

> <PUBCHEM_SHAPE_MULTIPOLES>
190.06
7.93
1.07
0.67
0.98
0.16
-0.02
-1.63
-0.04
-0.04
-0.02
-0.11
0.05
0.2

> <PUBCHEM_SHAPE_SELFOVERLAP>
342.655

> <PUBCHEM_SHAPE_VOLUME>
123

> <PUBCHEM_COORDINATE_TYPE>
2
5
10

$$$$
