3119453
  -OEChem-02052300493D

 25 26  0     0  0  0  0  0  0999 V2000
   -2.0044   -2.5145   -0.7993 Cl  0  0  0  0  0  0  0  0  0  0  0  0
    1.6727   -2.2133    1.2315 Cl  0  0  0  0  0  0  0  0  0  0  0  0
   -6.1693    0.5934    0.5955 Cl  0  0  0  0  0  0  0  0  0  0  0  0
    6.2179    0.2477   -0.2841 Cl  0  0  0  0  0  0  0  0  0  0  0  0
    0.4074    0.4282    0.5551 O   0  0  0  0  0  0  0  0  0  0  0  0
    0.1391   -0.3049   -1.6418 O   0  0  0  0  0  0  0  0  0  0  0  0
   -1.7674    0.1539   -0.2851 C   0  0  0  0  0  0  0  0  0  0  0  0
    1.7899    0.3624    0.3617 C   0  0  0  0  0  0  0  0  0  0  0  0
   -2.6088   -0.9556   -0.3661 C   0  0  0  0  0  0  0  0  0  0  0  0
   -2.2873    1.3994    0.0677 C   0  0  0  0  0  0  0  0  0  0  0  0
   -0.3388    0.0608   -0.5609 C   0  0  0  0  0  0  0  0  0  0  0  0
    2.4704   -0.8022    0.6412 C   0  0  0  0  0  0  0  0  0  0  0  0
    2.4213    1.4938   -0.1098 C   0  0  0  0  0  0  0  0  0  0  0  0
   -3.9701   -0.8198   -0.0944 C   0  0  0  0  0  0  0  0  0  0  0  0
   -3.6487    1.5352    0.3392 C   0  0  0  0  0  0  0  0  0  0  0  0
   -4.4901    0.4256    0.2582 C   0  0  0  0  0  0  0  0  0  0  0  0
    3.8501   -0.8386    0.4395 C   0  0  0  0  0  0  0  0  0  0  0  0
    3.8010    1.4573   -0.3113 C   0  0  0  0  0  0  0  0  0  0  0  0
    4.5155    0.2911   -0.0367 C   0  0  0  0  0  0  0  0  0  0  0  0
   -1.6459    2.2749    0.1311 H   0  0  0  0  0  0  0  0  0  0  0  0
    1.8661    2.4020   -0.3228 H   0  0  0  0  0  0  0  0  0  0  0  0
   -4.6281   -1.6841   -0.1567 H   0  0  0  0  0  0  0  0  0  0  0  0
   -4.0402    2.5118    0.6122 H   0  0  0  0  0  0  0  0  0  0  0  0
    4.4086   -1.7475    0.6535 H   0  0  0  0  0  0  0  0  0  0  0  0
    4.3061    2.3454   -0.6825 H   0  0  0  0  0  0  0  0  0  0  0  0
  1  9  1  0  0  0  0
  2 12  1  0  0  0  0
  3 16  1  0  0  0  0
  4 19  1  0  0  0  0
  5  8  1  0  0  0  0
  5 11  1  0  0  0  0
  6 11  2  0  0  0  0
  7  9  2  0  0  0  0
  7 10  1  0  0  0  0
  7 11  1  0  0  0  0
  8 12  2  0  0  0  0
  8 13  1  0  0  0  0
  9 14  1  0  0  0  0
 10 15  2  0  0  0  0
 10 20  1  0  0  0  0
 12 17  1  0  0  0  0
 13 18  2  0  0  0  0
 13 21  1  0  0  0  0
 14 16  2  0  0  0  0
 14 22  1  0  0  0  0
 15 16  1  0  0  0  0
 15 23  1  0  0  0  0
 17 19  2  0  0  0  0
 17 24  1  0  0  0  0
 18 19  1  0  0  0  0
 18 25  1  0  0  0  0
M  END
> <PUBCHEM_COMPOUND_CID>
3119453

> <PUBCHEM_CONFORMER_RMSD>
0.6

> <PUBCHEM_CONFORMER_DIVERSEORDER>
1
46
40
22
29
47
49
27
38
5
50
36
24
37
2
52
23
35
39
6
13
41
45
51
42
48
8
30
34
21
54
14
25
4
3
53
26
7
33
17
19
15
16
28
31
9
32
11
43
12
44
20
18
10

> <PUBCHEM_MMFF94_PARTIAL_CHARGES>
25
1 -0.18
10 -0.15
11 0.63
12 0.18
13 -0.15
14 -0.15
15 -0.15
16 0.18
17 -0.15
18 -0.15
19 0.18
2 -0.18
20 0.15
21 0.15
22 0.15
23 0.15
24 0.15
25 0.15
3 -0.18
4 -0.18
5 -0.23
6 -0.57
7 0.09
8 0.08
9 0.18

> <PUBCHEM_EFFECTIVE_ROTOR_COUNT>
3

> <PUBCHEM_PHARMACOPHORE_FEATURES>
3
1 6 acceptor
6 7 9 10 14 15 16 rings
6 8 12 13 17 18 19 rings

> <PUBCHEM_HEAVY_ATOM_COUNT>
19

> <PUBCHEM_ATOM_DEF_STEREO_COUNT>
0

> <PUBCHEM_ATOM_UDEF_STEREO_COUNT>
0

> <PUBCHEM_BOND_DEF_STEREO_COUNT>
0

> <PUBCHEM_BOND_UDEF_STEREO_COUNT>
0

> <PUBCHEM_ISOTOPIC_ATOM_COUNT>
0

> <PUBCHEM_COMPONENT_COUNT>
1

> <PUBCHEM_CACTVS_TAUTO_COUNT>
1

> <PUBCHEM_CONFORMER_ID>
002F995D00000001

> <PUBCHEM_MMFF94_ENERGY>
56.2383

> <PUBCHEM_FEATURE_SELFOVERLAP>
15.223

> <PUBCHEM_SHAPE_FINGERPRINT>
10354089 29 18408042905479987088
10616163 171 18340767143024474727
11796584 16 16559034896317801470
12107183 9 17616248087833682969
12166972 35 11527940166863692115
12236239 1 18342739624382892016
12251169 10 18411417306549405197
12507560 40 17895752890363450645
12670546 56 18341884221157648893
12788726 201 17703231698437384537
128620 24 14851603271668170826
13167823 11 18409165519367407698
13533116 47 18260544473123495691
13583140 156 17967810544726021509
13760787 19 18411980273413722206
14341114 176 18409453557048787464
14341114 328 18409729551663098386
15042514 8 18269557307686818367
17834072 33 18408321098716399209
1813 80 16805611317421364438
18186145 218 18334565876538161108
19050596 39 18335977644635012634
19422 9 18411414046758911318
20681677 155 18343299288359388378
21033648 29 18041542694831309773
21065198 48 18335981961367425585
21267235 1 18409737265397968488
22224240 67 17530965812871118752
23402539 116 18131063849374874285
23402655 69 18409448111621008788
23493267 7 17988926660504007474
23558518 356 17905886229573600430
23559900 14 18131061688442088392
23622692 88 18334859424404158085
300161 21 18411692192782611040
3545911 37 18412545405289742112
4214541 1 18413388756467442117
474 4 17822857601393112556
4990 188 18272376378021635126
5104073 3 18338510953774637122
542803 24 17676206883494723076
59755656 215 18201728319003819022
59755656 520 14620789388925530869
633830 44 18337105786936770644
77779 3 18410292518865057792
8272917 22 18338238167564562986

> <PUBCHEM_SHAPE_MULTIPOLES>
386.75
12.35
1.94
0.96
0.57
0.93
0.08
-3.11
-1.08
-0.35
-0.06
0.02
0.31
-1.09

> <PUBCHEM_SHAPE_SELFOVERLAP>
799.969

> <PUBCHEM_SHAPE_VOLUME>
224.5

> <PUBCHEM_COORDINATE_TYPE>
2
5
10

$$$$
