520932
  -OEChem-02052300493D

 49 48  0     1  0  0  0  0  0999 V2000
   -0.0225   -1.6320   -0.5838 O   0  0  0  0  0  0  0  0  0  0  0  0
   -0.8810    1.8984   -0.9515 O   0  0  0  0  0  0  0  0  0  0  0  0
    1.1430    1.4970    0.8484 O   0  0  0  0  0  0  0  0  0  0  0  0
   -2.3509   -1.0832    0.5245 O   0  0  0  0  0  0  0  0  0  0  0  0
    3.0191   -0.4075    0.1244 O   0  0  0  0  0  0  0  0  0  0  0  0
   -4.5968   -0.1168   -0.5264 O   0  0  0  0  0  0  0  0  0  0  0  0
    0.3978   -1.5969   -2.8550 O   0  0  0  0  0  0  0  0  0  0  0  0
   -0.3459    1.5924   -3.1779 O   0  0  0  0  0  0  0  0  0  0  0  0
    0.7641    1.5886    3.1253 O   0  0  0  0  0  0  0  0  0  0  0  0
   -3.1675   -0.5541    2.6197 O   0  0  0  0  0  0  0  0  0  0  0  0
    4.5333   -1.8148    1.1558 O   0  0  0  0  0  0  0  0  0  0  0  0
    0.1602   -0.2136   -0.5228 C   0  0  1  0  0  0  0  0  0  0  0  0
   -1.1690    0.5006   -0.8241 C   0  0  1  0  0  0  0  0  0  0  0  0
    0.7874    0.1067    0.8421 C   0  0  1  0  0  0  0  0  0  0  0  0
   -2.3113    0.2976    0.1802 C   0  0  1  0  0  0  0  0  0  0  0  0
    2.0590   -0.6800    1.1415 C   0  0  0  0  0  0  0  0  0  0  0  0
   -3.6759    0.6765   -0.3575 C   0  0  0  0  0  0  0  0  0  0  0  0
    0.1273   -2.1890   -1.8190 C   0  0  0  0  0  0  0  0  0  0  0  0
   -0.4792    2.3015   -2.1897 C   0  0  0  0  0  0  0  0  0  0  0  0
    1.0846    2.1071    2.0645 C   0  0  0  0  0  0  0  0  0  0  0  0
   -2.8024   -1.3683    1.7826 C   0  0  0  0  0  0  0  0  0  0  0  0
   -0.0905   -3.6691   -1.7306 C   0  0  0  0  0  0  0  0  0  0  0  0
    4.2196   -1.0457    0.2573 C   0  0  0  0  0  0  0  0  0  0  0  0
   -0.2158    3.7768   -2.1736 C   0  0  0  0  0  0  0  0  0  0  0  0
    1.4799    3.5453    1.9189 C   0  0  0  0  0  0  0  0  0  0  0  0
   -2.7898   -2.8506    2.0032 C   0  0  0  0  0  0  0  0  0  0  0  0
    5.1233   -0.6668   -0.8767 C   0  0  0  0  0  0  0  0  0  0  0  0
    0.8944    0.1023   -1.2770 H   0  0  0  0  0  0  0  0  0  0  0  0
   -1.5490    0.1114   -1.7796 H   0  0  0  0  0  0  0  0  0  0  0  0
    0.0570   -0.1215    1.6280 H   0  0  0  0  0  0  0  0  0  0  0  0
   -2.1295    0.9296    1.0591 H   0  0  0  0  0  0  0  0  0  0  0  0
    1.8511   -1.7554    1.1763 H   0  0  0  0  0  0  0  0  0  0  0  0
    2.4779   -0.3709    2.1063 H   0  0  0  0  0  0  0  0  0  0  0  0
   -3.8055    1.7456   -0.5995 H   0  0  0  0  0  0  0  0  0  0  0  0
   -1.0994   -3.8735   -1.3632 H   0  0  0  0  0  0  0  0  0  0  0  0
    0.0140   -4.1114   -2.7255 H   0  0  0  0  0  0  0  0  0  0  0  0
    0.6576   -4.1144   -1.0699 H   0  0  0  0  0  0  0  0  0  0  0  0
    0.6037    3.9983   -1.4854 H   0  0  0  0  0  0  0  0  0  0  0  0
    0.0713    4.1049   -3.1767 H   0  0  0  0  0  0  0  0  0  0  0  0
   -1.1219    4.3126   -1.8796 H   0  0  0  0  0  0  0  0  0  0  0  0
    2.4921    3.6128    1.5122 H   0  0  0  0  0  0  0  0  0  0  0  0
    1.4680    4.0259    2.9013 H   0  0  0  0  0  0  0  0  0  0  0  0
    0.7681    4.0605    1.2690 H   0  0  0  0  0  0  0  0  0  0  0  0
   -3.4596   -3.3365    1.2893 H   0  0  0  0  0  0  0  0  0  0  0  0
   -3.1391   -3.0701    3.0161 H   0  0  0  0  0  0  0  0  0  0  0  0
   -1.7709   -3.2315    1.8959 H   0  0  0  0  0  0  0  0  0  0  0  0
    4.6729   -0.9688   -1.8256 H   0  0  0  0  0  0  0  0  0  0  0  0
    6.0812   -1.1829   -0.7655 H   0  0  0  0  0  0  0  0  0  0  0  0
    5.3043    0.4109   -0.8618 H   0  0  0  0  0  0  0  0  0  0  0  0
  1 12  1  0  0  0  0
  1 18  1  0  0  0  0
  2 13  1  0  0  0  0
  2 19  1  0  0  0  0
  3 14  1  0  0  0  0
  3 20  1  0  0  0  0
  4 15  1  0  0  0  0
  4 21  1  0  0  0  0
  5 16  1  0  0  0  0
  5 23  1  0  0  0  0
  6 17  2  0  0  0  0
  7 18  2  0  0  0  0
  8 19  2  0  0  0  0
  9 20  2  0  0  0  0
 10 21  2  0  0  0  0
 11 23  2  0  0  0  0
 12 13  1  0  0  0  0
 12 14  1  0  0  0  0
 12 28  1  0  0  0  0
 13 15  1  0  0  0  0
 13 29  1  0  0  0  0
 14 16  1  0  0  0  0
 14 30  1  0  0  0  0
 15 17  1  0  0  0  0
 15 31  1  0  0  0  0
 16 32  1  0  0  0  0
 16 33  1  0  0  0  0
 17 34  1  0  0  0  0
 18 22  1  0  0  0  0
 19 24  1  0  0  0  0
 20 25  1  0  0  0  0
 21 26  1  0  0  0  0
 22 35  1  0  0  0  0
 22 36  1  0  0  0  0
 22 37  1  0  0  0  0
 23 27  1  0  0  0  0
 24 38  1  0  0  0  0
 24 39  1  0  0  0  0
 24 40  1  0  0  0  0
 25 41  1  0  0  0  0
 25 42  1  0  0  0  0
 25 43  1  0  0  0  0
 26 44  1  0  0  0  0
 26 45  1  0  0  0  0
 26 46  1  0  0  0  0
 27 47  1  0  0  0  0
 27 48  1  0  0  0  0
 27 49  1  0  0  0  0
M  END
> <PUBCHEM_COMPOUND_CID>
520932

> <PUBCHEM_CONFORMER_RMSD>
1.2

> <PUBCHEM_CONFORMER_DIVERSEORDER>
2
94
300
216
396
194
260
69
147
404
255
379
169
301
36
146
79
177
429
47
310
389
374
61
328
246
154
439
218
176
323
333
433
129
59
35
416
14
163
136
185
393
208
95
337
312
62
65
400
235
117
100
192
172
399
366
316
282
347
448
98
384
166
238
306
418
225
386
217
4
354
252
363
123
401
443
279
236
304
356
413
193
426
18
233
132
155
436
161
256
93
179
27
162
332
407
232
251
445
408
365
434
91
432
121
210
293
419
357
89
106
274
305
412
423
292
405
281
258
168
317
13
269
190
324
21
266
441
449
211
406
38
231
319
157
444
81
10
140
259
243
320
360
111
245
289
297
183
186
398
263
424
115
344
268
283
314
133
382
264
167
51
187
276
362
280
239
326
376
427
96
110
336
201
370
125
375
73
395
19
44
308
223
219
158
213
139
318
267
299
285
199
447
277
144
203
114
76
180
171
371
334
198
450
164
26
437
228
3
284
28
150
431
335
160
56
403
315
446
145
290
209
143
156
355
16
253
215
361
222
109
202
68
343
385
330
8
272
220
170
15
148
350
126
359
50
37
46
82
43
34
321
373
112
86
196
234
273
230
287
178
191
42
6
74
212
348
402
261
248
421
63
1
428
131
40
204
257
390
87
54
214
22
414
32
52
452
275
11
173
302
380
454
200
453
338
295
241
124
12
58
25
88
181
322
411
254
85
262
184
329
105
247
113
442
415
265
206
141
122
224
387
345
303
103
278
107
151
118
388
120
80
339
352
152
45
349
108
78
383
48
159
33
340
331
128
49
23
92
409
75
351
410
7
127
116
17
67
244
197
242
377
77
84
325
435
378
39
55
29
134
226
101
60
286
205
153
346
367
30
189
71
250
270
288
53
364
20
72
369
188
394
5
311
130
271
31
309
66
249
195
138
438
341
64
142
342
353
440
221
119
149
24
99
90
240
358
104
57
70
137
422
296
372
291
298
327
207
135
392
451
175
102
417
307
391
237
397
229
83
165
425
420
313
294
381
430
182
368
97
227
174
41
9

> <PUBCHEM_MMFF94_PARTIAL_CHARGES>
28
1 -0.43
10 -0.57
11 -0.57
12 0.28
13 0.28
14 0.28
15 0.34
16 0.28
17 0.45
18 0.66
19 0.66
2 -0.43
20 0.66
21 0.66
22 0.06
23 0.66
24 0.06
25 0.06
26 0.06
27 0.06
3 -0.43
34 0.06
4 -0.43
5 -0.43
6 -0.57
7 -0.57
8 -0.57
9 -0.57

> <PUBCHEM_EFFECTIVE_ROTOR_COUNT>
15

> <PUBCHEM_PHARMACOPHORE_FEATURES>
6
1 10 acceptor
1 11 acceptor
1 6 acceptor
1 7 acceptor
1 8 acceptor
1 9 acceptor

> <PUBCHEM_HEAVY_ATOM_COUNT>
27

> <PUBCHEM_ATOM_DEF_STEREO_COUNT>
0

> <PUBCHEM_ATOM_UDEF_STEREO_COUNT>
4

> <PUBCHEM_BOND_DEF_STEREO_COUNT>
0

> <PUBCHEM_BOND_UDEF_STEREO_COUNT>
0

> <PUBCHEM_ISOTOPIC_ATOM_COUNT>
0

> <PUBCHEM_COMPONENT_COUNT>
1

> <PUBCHEM_CACTVS_TAUTO_COUNT>
2

> <PUBCHEM_CONFORMER_ID>
0007F2E400000002

> <PUBCHEM_MMFF94_ENERGY>
42.4322

> <PUBCHEM_FEATURE_SELFOVERLAP>
30.452

> <PUBCHEM_SHAPE_FINGERPRINT>
10906281 52 18116447955201890869
12633257 1 17985857971265518059
20600515 1 18118710775616606171
23419403 2 18338238274986095273
23559900 14 17968939846178514363
57527573 199 17627258683168686529
5845 1 8205892193284495079

> <PUBCHEM_SHAPE_MULTIPOLES>
491.08
6.36
4.04
3.2
3.64
1.4
-0.2
-3.78
2.18
0.3
-1.15
-0.54
1.11
1.89

> <PUBCHEM_SHAPE_SELFOVERLAP>
973.925

> <PUBCHEM_SHAPE_VOLUME>
287.8

> <PUBCHEM_COORDINATE_TYPE>
2
5
10

$$$$
