61774
  -OEChem-02052300483D

 16 15  0     0  0  0  0  0  0999 V2000
   -1.1030    0.6278   -0.2733 O   0  0  0  0  0  0  0  0  0  0  0  0
   -0.2133   -1.5035    0.0213 O   0  0  0  0  0  0  0  0  0  0  0  0
    2.3279   -0.2051    0.0945 C   0  0  0  0  0  0  0  0  0  0  0  0
    1.1726    0.4534   -0.0654 C   0  0  0  0  0  0  0  0  0  0  0  0
    3.6596    0.4700    0.1337 C   0  0  0  0  0  0  0  0  0  0  0  0
   -0.1073   -0.2919   -0.0926 C   0  0  0  0  0  0  0  0  0  0  0  0
   -2.3699    0.0794   -0.3286 C   0  0  0  0  0  0  0  0  0  0  0  0
   -3.3665    0.3700    0.5103 C   0  0  0  0  0  0  0  0  0  0  0  0
    2.3380   -1.2861    0.2049 H   0  0  0  0  0  0  0  0  0  0  0  0
    1.1483    1.5323   -0.1765 H   0  0  0  0  0  0  0  0  0  0  0  0
    3.5787    1.5554    0.0173 H   0  0  0  0  0  0  0  0  0  0  0  0
    4.2950    0.0872   -0.6708 H   0  0  0  0  0  0  0  0  0  0  0  0
    4.1529    0.2652    1.0887 H   0  0  0  0  0  0  0  0  0  0  0  0
   -2.4769   -0.6159   -1.1509 H   0  0  0  0  0  0  0  0  0  0  0  0
   -4.3374   -0.0986    0.3965 H   0  0  0  0  0  0  0  0  0  0  0  0
   -3.2268    1.0773    1.3201 H   0  0  0  0  0  0  0  0  0  0  0  0
  1  6  1  0  0  0  0
  1  7  1  0  0  0  0
  2  6  2  0  0  0  0
  3  4  2  3  0  0  0
  3  5  1  0  0  0  0
  3  9  1  0  0  0  0
  4  6  1  0  0  0  0
  4 10  1  0  0  0  0
  5 11  1  0  0  0  0
  5 12  1  0  0  0  0
  5 13  1  0  0  0  0
  7  8  2  0  0  0  0
  7 14  1  0  0  0  0
  8 15  1  0  0  0  0
  8 16  1  0  0  0  0
M  END
> <PUBCHEM_COMPOUND_CID>
61774

> <PUBCHEM_CONFORMER_RMSD>
0.6

> <PUBCHEM_CONFORMER_DIVERSEORDER>
1
4
5
6
2
3

> <PUBCHEM_MMFF94_PARTIAL_CHARGES>
13
1 -0.23
10 0.15
14 0.15
15 0.15
16 0.15
2 -0.57
3 -0.29
4 -0.14
5 0.14
6 0.71
7 -0.07
8 -0.3
9 0.15

> <PUBCHEM_EFFECTIVE_ROTOR_COUNT>
3

> <PUBCHEM_PHARMACOPHORE_FEATURES>
2
1 2 acceptor
1 5 hydrophobe

> <PUBCHEM_HEAVY_ATOM_COUNT>
8

> <PUBCHEM_ATOM_DEF_STEREO_COUNT>
0

> <PUBCHEM_ATOM_UDEF_STEREO_COUNT>
0

> <PUBCHEM_BOND_DEF_STEREO_COUNT>
0

> <PUBCHEM_BOND_UDEF_STEREO_COUNT>
1

> <PUBCHEM_ISOTOPIC_ATOM_COUNT>
0

> <PUBCHEM_COMPONENT_COUNT>
1

> <PUBCHEM_CACTVS_TAUTO_COUNT>
1

> <PUBCHEM_CONFORMER_ID>
0000F14E00000001

> <PUBCHEM_MMFF94_ENERGY>
15.7911

> <PUBCHEM_FEATURE_SELFOVERLAP>
10.148

> <PUBCHEM_SHAPE_FINGERPRINT>
10219947 1 18186803564905144661
11062470 55 13614521861479337728
14325111 11 18410855447248541174
14390081 3 17988922258310261161
20211469 26 12035443947781923656
23235685 24 18413385436557799668
5460574 1 10303813193956357892

> <PUBCHEM_SHAPE_MULTIPOLES>
152.9
5.71
0.94
0.65
0.73
0.28
-0.02
-1.33
-0.72
-0.01
-0.01
-0.13
-0.03
-0.04

> <PUBCHEM_SHAPE_SELFOVERLAP>
284.859

> <PUBCHEM_SHAPE_VOLUME>
94.7

> <PUBCHEM_COORDINATE_TYPE>
2
5
10

$$$$
