637514
  -OEChem-02052300493D

 15 14  0     1  0  0  0  0  0999 V2000
   -2.0497   -0.7924    0.1693 O   0  0  0  0  0  0  0  0  0  0  0  0
    1.2296    0.6403    0.2817 O   0  0  0  0  0  0  0  0  0  0  0  0
    0.4949   -1.4398   -0.3909 O   0  0  0  0  0  0  0  0  0  0  0  0
   -1.0875    0.2260    0.3956 C   0  0  2  0  0  0  0  0  0  0  0  0
   -1.4470    1.4167   -0.4758 C   0  0  0  0  0  0  0  0  0  0  0  0
    0.2842   -0.3175    0.0506 C   0  0  0  0  0  0  0  0  0  0  0  0
    2.5755    0.2668   -0.0306 C   0  0  0  0  0  0  0  0  0  0  0  0
   -1.1139    0.4818    1.4590 H   0  0  0  0  0  0  0  0  0  0  0  0
   -2.4781    1.7345   -0.2875 H   0  0  0  0  0  0  0  0  0  0  0  0
   -0.7824    2.2664   -0.2913 H   0  0  0  0  0  0  0  0  0  0  0  0
   -1.3809    1.1617   -1.5398 H   0  0  0  0  0  0  0  0  0  0  0  0
   -2.0738   -0.9809   -0.7845 H   0  0  0  0  0  0  0  0  0  0  0  0
    2.6659    0.0327   -1.0955 H   0  0  0  0  0  0  0  0  0  0  0  0
    2.8833   -0.5868    0.5810 H   0  0  0  0  0  0  0  0  0  0  0  0
    3.2256    1.1153    0.1986 H   0  0  0  0  0  0  0  0  0  0  0  0
  1  4  1  0  0  0  0
  1 12  1  0  0  0  0
  2  6  1  0  0  0  0
  2  7  1  0  0  0  0
  3  6  2  0  0  0  0
  4  5  1  0  0  0  0
  4  6  1  0  0  0  0
  4  8  1  0  0  0  0
  5  9  1  0  0  0  0
  5 10  1  0  0  0  0
  5 11  1  0  0  0  0
  7 13  1  0  0  0  0
  7 14  1  0  0  0  0
  7 15  1  0  0  0  0
M  END
> <PUBCHEM_COMPOUND_CID>
637514

> <PUBCHEM_CONFORMER_RMSD>
0.4

> <PUBCHEM_CONFORMER_DIVERSEORDER>
1
3
2

> <PUBCHEM_MMFF94_PARTIAL_CHARGES>
7
1 -0.68
12 0.4
2 -0.43
3 -0.57
4 0.34
6 0.66
7 0.28

> <PUBCHEM_EFFECTIVE_ROTOR_COUNT>
2

> <PUBCHEM_PHARMACOPHORE_FEATURES>
3
1 1 acceptor
1 1 donor
1 3 acceptor

> <PUBCHEM_HEAVY_ATOM_COUNT>
7

> <PUBCHEM_ATOM_DEF_STEREO_COUNT>
1

> <PUBCHEM_ATOM_UDEF_STEREO_COUNT>
0

> <PUBCHEM_BOND_DEF_STEREO_COUNT>
0

> <PUBCHEM_BOND_UDEF_STEREO_COUNT>
0

> <PUBCHEM_ISOTOPIC_ATOM_COUNT>
0

> <PUBCHEM_COMPONENT_COUNT>
1

> <PUBCHEM_CACTVS_TAUTO_COUNT>
1

> <PUBCHEM_CONFORMER_ID>
0009BA4A00000001

> <PUBCHEM_MMFF94_ENERGY>
4.2925

> <PUBCHEM_FEATURE_SELFOVERLAP>
15.23

> <PUBCHEM_SHAPE_FINGERPRINT>
16714656 1 18339083816544199292
20096714 4 18339078190126641432
21040471 1 18192147088305473661
24536 1 17986667061150889105
29004967 10 18272097105624701467
5084963 1 18412266163854099192
5460574 1 8935011360322887216

> <PUBCHEM_SHAPE_MULTIPOLES>
126.45
2.9
1.29
0.67
1.16
0.03
0.01
-0.45
0
-0.39
0.2
-0.05
-0.03
0.22

> <PUBCHEM_SHAPE_SELFOVERLAP>
231.048

> <PUBCHEM_SHAPE_VOLUME>
81.4

> <PUBCHEM_COORDINATE_TYPE>
2
5
10

$$$$
