643570
  -OEChem-02052300473D

 22 22  0     1  0  0  0  0  0999 V2000
    0.7862    2.2590   -0.4406 O   0  0  0  0  0  0  0  0  0  0  0  0
    1.9402   -0.9058    0.7925 O   0  0  0  0  0  0  0  0  0  0  0  0
    2.6855    0.4113   -0.9478 O   0  0  0  0  0  0  0  0  0  0  0  0
    0.7244    1.0686    0.3420 C   0  0  1  0  0  0  0  0  0  0  0  0
   -0.6010    0.4143    0.1428 C   0  0  0  0  0  0  0  0  0  0  0  0
   -1.6784    0.7584    0.9593 C   0  0  0  0  0  0  0  0  0  0  0  0
   -0.7634   -0.5415   -0.8602 C   0  0  0  0  0  0  0  0  0  0  0  0
    1.8982    0.1764   -0.0399 C   0  0  0  0  0  0  0  0  0  0  0  0
   -2.9181    0.1468    0.7730 C   0  0  0  0  0  0  0  0  0  0  0  0
   -2.0033   -1.1530   -1.0465 C   0  0  0  0  0  0  0  0  0  0  0  0
   -3.0805   -0.8088   -0.2299 C   0  0  0  0  0  0  0  0  0  0  0  0
    3.0104   -1.8258    0.5554 C   0  0  0  0  0  0  0  0  0  0  0  0
    0.8727    1.3631    1.3876 H   0  0  0  0  0  0  0  0  0  0  0  0
   -1.5650    1.5028    1.7430 H   0  0  0  0  0  0  0  0  0  0  0  0
    0.0495   -0.8193   -1.5249 H   0  0  0  0  0  0  0  0  0  0  0  0
   -3.7572    0.4152    1.4083 H   0  0  0  0  0  0  0  0  0  0  0  0
   -2.1314   -1.8941   -1.8300 H   0  0  0  0  0  0  0  0  0  0  0  0
   -4.0461   -1.2842   -0.3759 H   0  0  0  0  0  0  0  0  0  0  0  0
    0.5048    2.0456   -1.3468 H   0  0  0  0  0  0  0  0  0  0  0  0
    2.9299   -2.2482   -0.4507 H   0  0  0  0  0  0  0  0  0  0  0  0
    2.9291   -2.6368    1.2840 H   0  0  0  0  0  0  0  0  0  0  0  0
    3.9751   -1.3276    0.6902 H   0  0  0  0  0  0  0  0  0  0  0  0
  1  4  1  0  0  0  0
  1 19  1  0  0  0  0
  2  8  1  0  0  0  0
  2 12  1  0  0  0  0
  3  8  2  0  0  0  0
  4  5  1  0  0  0  0
  4  8  1  0  0  0  0
  4 13  1  0  0  0  0
  5  6  2  0  0  0  0
  5  7  1  0  0  0  0
  6  9  1  0  0  0  0
  6 14  1  0  0  0  0
  7 10  2  0  0  0  0
  7 15  1  0  0  0  0
  9 11  2  0  0  0  0
  9 16  1  0  0  0  0
 10 11  1  0  0  0  0
 10 17  1  0  0  0  0
 11 18  1  0  0  0  0
 12 20  1  0  0  0  0
 12 21  1  0  0  0  0
 12 22  1  0  0  0  0
M  END
> <PUBCHEM_COMPOUND_CID>
643570

> <PUBCHEM_CONFORMER_RMSD>
0.6

> <PUBCHEM_CONFORMER_DIVERSEORDER>
1
3
4
5
6
2
7

> <PUBCHEM_MMFF94_PARTIAL_CHARGES>
18
1 -0.68
10 -0.15
11 -0.15
12 0.28
14 0.15
15 0.15
16 0.15
17 0.15
18 0.15
19 0.4
2 -0.43
3 -0.57
4 0.48
5 -0.14
6 -0.15
7 -0.15
8 0.66
9 -0.15

> <PUBCHEM_EFFECTIVE_ROTOR_COUNT>
3

> <PUBCHEM_PHARMACOPHORE_FEATURES>
4
1 1 acceptor
1 1 donor
1 3 acceptor
6 5 6 7 9 10 11 rings

> <PUBCHEM_HEAVY_ATOM_COUNT>
12

> <PUBCHEM_ATOM_DEF_STEREO_COUNT>
1

> <PUBCHEM_ATOM_UDEF_STEREO_COUNT>
0

> <PUBCHEM_BOND_DEF_STEREO_COUNT>
0

> <PUBCHEM_BOND_UDEF_STEREO_COUNT>
0

> <PUBCHEM_ISOTOPIC_ATOM_COUNT>
0

> <PUBCHEM_COMPONENT_COUNT>
1

> <PUBCHEM_CACTVS_TAUTO_COUNT>
1

> <PUBCHEM_CONFORMER_ID>
0009D1F200000001

> <PUBCHEM_MMFF94_ENERGY>
25.3059

> <PUBCHEM_FEATURE_SELFOVERLAP>
20.304

> <PUBCHEM_SHAPE_FINGERPRINT>
10857977 72 16415479389276685579
11769659 78 18341885333812790799
12202030 40 16950855781285235371
12326174 3 17678438965145441480
12423570 1 10906637666656031544
12932764 1 18413110580152286841
14144814 61 18273217503857850723
14993402 34 18343590641771273501
15310529 11 18113339712717397445
16945 1 18262797496517368233
20361792 2 18335693919179958294
20645464 45 15697991920861536539
20653091 64 18198337549259997968
207724 885 18411702075765947371
20871998 184 18053376596482585662
22445834 79 18342176691277043627
22802520 49 15575544756952527659
23463225 33 18341333279880208566
23552423 10 18125155185086772653
2748010 2 17482857575130409685
3248919 1 17385721421805465585
369184 2 13542465367127104351
5084963 1 18201441415051328137
7364860 26 17559395970756256440

> <PUBCHEM_SHAPE_MULTIPOLES>
229.35
4.81
1.66
1.04
0.47
0.22
-0.03
-1.96
0.55
0.72
-0.09
-0.05
-0.08
-0.95

> <PUBCHEM_SHAPE_SELFOVERLAP>
472.472

> <PUBCHEM_SHAPE_VOLUME>
132.1

> <PUBCHEM_COORDINATE_TYPE>
2
5
10

$$$$
