688176
  -OEChem-02052300473D

 36 37  0     1  0  0  0  0  0999 V2000
    3.5534   -0.2894    0.2813 O   0  0  0  0  0  0  0  0  0  0  0  0
    1.7525   -1.3642   -0.6875 O   0  0  0  0  0  0  0  0  0  0  0  0
    0.0722    0.5479    0.0163 N   0  0  2  0  0  0  0  0  0  0  0  0
    1.4570    0.7237    0.4667 C   0  0  2  0  0  0  0  0  0  0  0  0
    1.9278    2.0393   -0.1537 C   0  0  0  0  0  0  0  0  0  0  0  0
    0.7346    2.5424   -0.9529 C   0  0  0  0  0  0  0  0  0  0  0  0
   -0.4469    1.8869   -0.2650 C   0  0  0  0  0  0  0  0  0  0  0  0
   -0.7546   -0.1723    0.9753 C   0  0  0  0  0  0  0  0  0  0  0  0
    2.2405   -0.4366   -0.0561 C   0  0  0  0  0  0  0  0  0  0  0  0
   -2.1653   -0.3524    0.4887 C   0  0  0  0  0  0  0  0  0  0  0  0
   -3.1212    0.6114    0.7839 C   0  0  0  0  0  0  0  0  0  0  0  0
   -2.4973   -1.4809   -0.2502 C   0  0  0  0  0  0  0  0  0  0  0  0
    4.4227   -1.3373   -0.1593 C   0  0  0  0  0  0  0  0  0  0  0  0
   -4.4305    0.4441    0.3328 C   0  0  0  0  0  0  0  0  0  0  0  0
   -3.8065   -1.6483   -0.7014 C   0  0  0  0  0  0  0  0  0  0  0  0
   -4.7731   -0.6857   -0.4099 C   0  0  0  0  0  0  0  0  0  0  0  0
    5.8347   -1.0285    0.2908 C   0  0  0  0  0  0  0  0  0  0  0  0
    1.5423    0.7600    1.5599 H   0  0  0  0  0  0  0  0  0  0  0  0
    2.8122    1.9546   -0.7936 H   0  0  0  0  0  0  0  0  0  0  0  0
    2.1562    2.7576    0.6432 H   0  0  0  0  0  0  0  0  0  0  0  0
    0.6677    3.6343   -0.9543 H   0  0  0  0  0  0  0  0  0  0  0  0
    0.8107    2.2022   -1.9933 H   0  0  0  0  0  0  0  0  0  0  0  0
   -0.6920    2.4392    0.6512 H   0  0  0  0  0  0  0  0  0  0  0  0
   -1.3119    1.8824   -0.9348 H   0  0  0  0  0  0  0  0  0  0  0  0
   -0.7704    0.3371    1.9492 H   0  0  0  0  0  0  0  0  0  0  0  0
   -0.3251   -1.1632    1.1739 H   0  0  0  0  0  0  0  0  0  0  0  0
   -2.8733    1.4911    1.3709 H   0  0  0  0  0  0  0  0  0  0  0  0
   -1.7521   -2.2359   -0.4849 H   0  0  0  0  0  0  0  0  0  0  0  0
    4.0958   -2.2893    0.2737 H   0  0  0  0  0  0  0  0  0  0  0  0
    4.3888   -1.4041   -1.2524 H   0  0  0  0  0  0  0  0  0  0  0  0
   -5.1837    1.1922    0.5619 H   0  0  0  0  0  0  0  0  0  0  0  0
   -4.0733   -2.5278   -1.2801 H   0  0  0  0  0  0  0  0  0  0  0  0
   -5.7925   -0.8163   -0.7607 H   0  0  0  0  0  0  0  0  0  0  0  0
    6.5277   -1.8111   -0.0305 H   0  0  0  0  0  0  0  0  0  0  0  0
    6.1689   -0.0698   -0.1196 H   0  0  0  0  0  0  0  0  0  0  0  0
    5.8810   -0.9407    1.3813 H   0  0  0  0  0  0  0  0  0  0  0  0
  1  9  1  0  0  0  0
  1 13  1  0  0  0  0
  2  9  2  0  0  0  0
  3  4  1  0  0  0  0
  3  7  1  0  0  0  0
  3  8  1  0  0  0  0
  4  5  1  0  0  0  0
  4  9  1  0  0  0  0
  4 18  1  0  0  0  0
  5  6  1  0  0  0  0
  5 19  1  0  0  0  0
  5 20  1  0  0  0  0
  6  7  1  0  0  0  0
  6 21  1  0  0  0  0
  6 22  1  0  0  0  0
  7 23  1  0  0  0  0
  7 24  1  0  0  0  0
  8 10  1  0  0  0  0
  8 25  1  0  0  0  0
  8 26  1  0  0  0  0
 10 11  2  0  0  0  0
 10 12  1  0  0  0  0
 11 14  1  0  0  0  0
 11 27  1  0  0  0  0
 12 15  2  0  0  0  0
 12 28  1  0  0  0  0
 13 17  1  0  0  0  0
 13 29  1  0  0  0  0
 13 30  1  0  0  0  0
 14 16  2  0  0  0  0
 14 31  1  0  0  0  0
 15 16  1  0  0  0  0
 15 32  1  0  0  0  0
 16 33  1  0  0  0  0
 17 34  1  0  0  0  0
 17 35  1  0  0  0  0
 17 36  1  0  0  0  0
M  END
> <PUBCHEM_COMPOUND_CID>
688176

> <PUBCHEM_CONFORMER_RMSD>
0.8

> <PUBCHEM_CONFORMER_DIVERSEORDER>
1
12
6
32
28
26
9
2
23
27
17
18
5
15
10
11
3
20
21
14
19
24
7
8
29
25
22
4
30
31
16
13

> <PUBCHEM_MMFF94_PARTIAL_CHARGES>
19
1 -0.43
10 -0.14
11 -0.15
12 -0.15
13 0.28
14 -0.15
15 -0.15
16 -0.15
2 -0.57
27 0.15
28 0.15
3 -0.81
31 0.15
32 0.15
33 0.15
4 0.33
7 0.27
8 0.41
9 0.66

> <PUBCHEM_EFFECTIVE_ROTOR_COUNT>
6

> <PUBCHEM_PHARMACOPHORE_FEATURES>
4
1 2 acceptor
1 3 cation
5 3 4 5 6 7 rings
6 10 11 12 14 15 16 rings

> <PUBCHEM_HEAVY_ATOM_COUNT>
17

> <PUBCHEM_ATOM_DEF_STEREO_COUNT>
1

> <PUBCHEM_ATOM_UDEF_STEREO_COUNT>
0

> <PUBCHEM_BOND_DEF_STEREO_COUNT>
0

> <PUBCHEM_BOND_UDEF_STEREO_COUNT>
0

> <PUBCHEM_ISOTOPIC_ATOM_COUNT>
0

> <PUBCHEM_COMPONENT_COUNT>
1

> <PUBCHEM_CACTVS_TAUTO_COUNT>
1

> <PUBCHEM_CONFORMER_ID>
000A803000000001

> <PUBCHEM_MMFF94_ENERGY>
32.4144

> <PUBCHEM_FEATURE_SELFOVERLAP>
20.297

> <PUBCHEM_SHAPE_FINGERPRINT>
10062212 137 18201999962953616255
10906281 52 18263104174741863048
10922049 32 8862937282174259400
11045977 3 17060047169017985306
11265709 11 18408043987774815840
116883 192 18410013195730636517
11806522 49 18343302582788909586
12553582 1 18187356606374490618
12815109 37 18409729543374045282
12841375 25 18334856108736962460
12916754 54 18263363750023339659
13288520 33 18341895173234556854
13583140 156 16056589902992787768
13862211 1 18335699421360527970
14251752 14 17386559150775912855
15196674 1 18340768233961413875
15415430 10 18342173366993422902
15442244 35 18411422821419606801
15536298 74 18341894146716391177
15848700 24 18335134293673694288
167882 2 18043821003267464100
17492 89 18121779693090938683
17834072 8 18334569119328043141
1813 80 18262249836810960604
18186145 218 17603859061753265353
18222031 100 18412827971863197306
187816 3 17458631090421444922
19141452 34 18343585110011625547
200 152 18060135448993061851
20279233 1 15051740802489179493
20374829 77 18408037394873299066
20612939 158 18187087298945229309
20645477 70 18262797492317404939
20871999 31 17822569404518179820
21069387 34 18338519745810269451
21267235 1 18411426124439303083
22079108 93 16558453259014591154
221490 88 18118129297026908323
2255824 54 18260830461572497504
23402539 116 18335135354546479618
23419403 2 18057295397547916704
23557571 272 18269563732820184596
23559900 14 18060409244346805705
2916195 48 11386660645425449846
3286 77 17846493755647391208
335352 9 18409729535221941413
347723 3 16443345343204065136
5104073 3 18200318839623311731
53777708 50 18195816399673871099
559249 180 18341610387339422283
633830 44 17603580876784949721
67856867 119 18200307865544403264
6992083 37 18269572575905126777
7364860 26 18268993265930807289
74978 22 18115028640224643955
81228 2 18045802090917650024
83771 10 18408885118401604768
9709674 26 18118686762655239227
9971528 1 18336540607632065552
9981440 41 17329423360100013025

> <PUBCHEM_SHAPE_MULTIPOLES>
333.13
10.14
2.17
0.87
4.67
1.1
0.01
-6.01
0.06
0.76
-0.64
-0.27
0.06
-0.6

> <PUBCHEM_SHAPE_SELFOVERLAP>
690.71

> <PUBCHEM_SHAPE_VOLUME>
192.1

> <PUBCHEM_COORDINATE_TYPE>
2
5
10

$$$$
