701
  -OEChem-02052300493D

 22 21  0     1  0  0  0  0  0999 V2000
   -1.5937   -0.3402   -0.1436 O   0  0  0  0  0  0  0  0  0  0  0  0
    2.3216    1.0996    0.5791 O   0  0  0  0  0  0  0  0  0  0  0  0
   -0.3361    1.5654    0.1564 O   0  0  0  0  0  0  0  0  0  0  0  0
    0.7549   -0.5913   -0.1495 C   0  0  2  0  0  0  0  0  0  0  0  0
    0.7360   -1.6546    0.9442 C   0  0  0  0  0  0  0  0  0  0  0  0
    2.1106    0.1047   -0.1145 C   0  0  0  0  0  0  0  0  0  0  0  0
   -0.4254    0.3561   -0.0110 C   0  0  0  0  0  0  0  0  0  0  0  0
   -2.7909    0.4411   -0.0763 C   0  0  0  0  0  0  0  0  0  0  0  0
    3.2094   -0.5075   -0.9453 C   0  0  0  0  0  0  0  0  0  0  0  0
   -3.9864   -0.4731   -0.2395 C   0  0  0  0  0  0  0  0  0  0  0  0
    0.6597   -1.0603   -1.1370 H   0  0  0  0  0  0  0  0  0  0  0  0
    0.7721   -1.1952    1.9387 H   0  0  0  0  0  0  0  0  0  0  0  0
    1.5929   -2.3312    0.8597 H   0  0  0  0  0  0  0  0  0  0  0  0
   -0.1742   -2.2615    0.8943 H   0  0  0  0  0  0  0  0  0  0  0  0
   -2.8421    0.9475    0.8940 H   0  0  0  0  0  0  0  0  0  0  0  0
   -2.7845    1.1887   -0.8773 H   0  0  0  0  0  0  0  0  0  0  0  0
    3.4209   -1.5201   -0.5947 H   0  0  0  0  0  0  0  0  0  0  0  0
    4.1177    0.0947   -0.8539 H   0  0  0  0  0  0  0  0  0  0  0  0
    2.9077   -0.5264   -1.9955 H   0  0  0  0  0  0  0  0  0  0  0  0
   -4.9209    0.0928   -0.1926 H   0  0  0  0  0  0  0  0  0  0  0  0
   -3.9400   -1.0006   -1.1980 H   0  0  0  0  0  0  0  0  0  0  0  0
   -3.9962   -1.2380    0.5439 H   0  0  0  0  0  0  0  0  0  0  0  0
  1  7  1  0  0  0  0
  1  8  1  0  0  0  0
  2  6  2  0  0  0  0
  3  7  2  0  0  0  0
  4  5  1  0  0  0  0
  4  6  1  0  0  0  0
  4  7  1  0  0  0  0
  4 11  1  0  0  0  0
  5 12  1  0  0  0  0
  5 13  1  0  0  0  0
  5 14  1  0  0  0  0
  6  9  1  0  0  0  0
  8 10  1  0  0  0  0
  8 15  1  0  0  0  0
  8 16  1  0  0  0  0
  9 17  1  0  0  0  0
  9 18  1  0  0  0  0
  9 19  1  0  0  0  0
 10 20  1  0  0  0  0
 10 21  1  0  0  0  0
 10 22  1  0  0  0  0
M  END
> <PUBCHEM_COMPOUND_CID>
701

> <PUBCHEM_CONFORMER_RMSD>
0.6

> <PUBCHEM_CONFORMER_DIVERSEORDER>
1
96
126
77
13
10
90
64
111
50
109
115
105
21
11
70
101
36
102
25
88
104
74
85
27
93
60
41
92
100
34
81
112
58
121
86
122
94
113
31
48
69
22
66
89
98
52
39
107
117
24
59
23
84
43
51
97
80
8
120
28
119
91
9
37
67
76
14
114
17
63
110
42
46
73
32
108
125
79
54
124
19
71
30
99
3
33
7
83
16
57
106
55
87
68
18
82
6
49
103
123
61
72
118
4
62
47
65
40
35
29
15
56
44
45
5
20
2
116
53
75
38
26
12
95
78

> <PUBCHEM_MMFF94_PARTIAL_CHARGES>
8
1 -0.43
2 -0.57
3 -0.57
4 0.12
6 0.45
7 0.66
8 0.28
9 0.06

> <PUBCHEM_EFFECTIVE_ROTOR_COUNT>
4

> <PUBCHEM_PHARMACOPHORE_FEATURES>
4
1 2 acceptor
1 3 acceptor
1 4 anion
1 5 hydrophobe

> <PUBCHEM_HEAVY_ATOM_COUNT>
10

> <PUBCHEM_ATOM_DEF_STEREO_COUNT>
0

> <PUBCHEM_ATOM_UDEF_STEREO_COUNT>
1

> <PUBCHEM_BOND_DEF_STEREO_COUNT>
0

> <PUBCHEM_BOND_UDEF_STEREO_COUNT>
0

> <PUBCHEM_ISOTOPIC_ATOM_COUNT>
0

> <PUBCHEM_COMPONENT_COUNT>
1

> <PUBCHEM_CACTVS_TAUTO_COUNT>
5

> <PUBCHEM_CONFORMER_ID>
000002BD00000001

> <PUBCHEM_MMFF94_ENERGY>
9.449

> <PUBCHEM_FEATURE_SELFOVERLAP>
20.303

> <PUBCHEM_SHAPE_FINGERPRINT>
10219947 1 17775569753828983101
11062470 55 14273458084804677911
12032990 46 18341901800569567759
12897270 3 18409730629705099247
12932764 1 18336820914572369829
14325111 11 18342175583243922989
20645477 70 18189043206379078079
21040471 1 18187085096027744442
21293036 1 18260556640338252308
23235685 24 17822014215707571750
23552423 10 17825385172371798923
29004967 10 17894915109473340913
5084963 1 18335709304000758452

> <PUBCHEM_SHAPE_MULTIPOLES>
188.19
5.56
1.3
0.82
3.69
0.1
-0.01
0.35
-1.33
-0.29
0.35
-0.41
0.14
0.07

> <PUBCHEM_SHAPE_SELFOVERLAP>
353

> <PUBCHEM_SHAPE_VOLUME>
117.7

> <PUBCHEM_COORDINATE_TYPE>
2
5
10

$$$$
