75069
  -OEChem-02052300483D

 42 41  0     0  0  0  0  0  0999 V2000
   -5.8917    0.6599   -0.1672 O   0  0  0  0  0  0  0  0  0  0  0  0
   -4.9038   -1.4444   -0.1140 O   0  0  0  0  0  0  0  0  0  0  0  0
    2.7797   -0.4023    0.0594 C   0  0  0  0  0  0  0  0  0  0  0  0
    1.5476    0.4924   -0.1041 C   0  0  0  0  0  0  0  0  0  0  0  0
    4.0711    0.4159   -0.0104 C   0  0  0  0  0  0  0  0  0  0  0  0
    0.2576   -0.3303   -0.0719 C   0  0  0  0  0  0  0  0  0  0  0  0
    5.3382   -0.4333    0.1243 C   0  0  0  0  0  0  0  0  0  0  0  0
   -1.0090    0.5204   -0.2083 C   0  0  0  0  0  0  0  0  0  0  0  0
    6.6289    0.3873    0.0794 C   0  0  0  0  0  0  0  0  0  0  0  0
   -2.2993   -0.3065   -0.1996 C   0  0  0  0  0  0  0  0  0  0  0  0
    7.8611   -0.5162    0.1447 C   0  0  0  0  0  0  0  0  0  0  0  0
   -3.5515    0.5695   -0.2638 C   0  0  0  0  0  0  0  0  0  0  0  0
    9.1480    0.2891    0.0620 C   0  0  0  0  0  0  0  0  0  0  0  0
   -4.8397   -0.2237   -0.1796 C   0  0  0  0  0  0  0  0  0  0  0  0
   -7.1314    0.0580   -0.0690 C   0  0  0  0  0  0  0  0  0  0  0  0
   -8.0058    0.2642    0.9180 C   0  0  0  0  0  0  0  0  0  0  0  0
    2.7301   -0.9290    1.0200 H   0  0  0  0  0  0  0  0  0  0  0  0
    2.7886   -1.1649   -0.7286 H   0  0  0  0  0  0  0  0  0  0  0  0
    1.6085    1.0371   -1.0539 H   0  0  0  0  0  0  0  0  0  0  0  0
    1.5264    1.2402    0.6978 H   0  0  0  0  0  0  0  0  0  0  0  0
    4.1055    0.9581   -0.9636 H   0  0  0  0  0  0  0  0  0  0  0  0
    4.0616    1.1728    0.7837 H   0  0  0  0  0  0  0  0  0  0  0  0
    0.2100   -0.8928    0.8689 H   0  0  0  0  0  0  0  0  0  0  0  0
    0.2805   -1.0698   -0.8820 H   0  0  0  0  0  0  0  0  0  0  0  0
    5.2987   -0.9912    1.0682 H   0  0  0  0  0  0  0  0  0  0  0  0
    5.3528   -1.1771   -0.6821 H   0  0  0  0  0  0  0  0  0  0  0  0
   -0.9587    1.0974   -1.1398 H   0  0  0  0  0  0  0  0  0  0  0  0
   -1.0394    1.2467    0.6134 H   0  0  0  0  0  0  0  0  0  0  0  0
    6.6429    1.0969    0.9153 H   0  0  0  0  0  0  0  0  0  0  0  0
    6.6543    0.9762   -0.8455 H   0  0  0  0  0  0  0  0  0  0  0  0
   -2.2945   -1.0046   -1.0458 H   0  0  0  0  0  0  0  0  0  0  0  0
   -2.3305   -0.9193    0.7101 H   0  0  0  0  0  0  0  0  0  0  0  0
    7.8530   -1.0893    1.0791 H   0  0  0  0  0  0  0  0  0  0  0  0
    7.8382   -1.2387   -0.6795 H   0  0  0  0  0  0  0  0  0  0  0  0
   -3.5583    1.1307   -1.2048 H   0  0  0  0  0  0  0  0  0  0  0  0
   -3.5396    1.2792    0.5716 H   0  0  0  0  0  0  0  0  0  0  0  0
    9.2020    0.8473   -0.8781 H   0  0  0  0  0  0  0  0  0  0  0  0
   10.0155   -0.3763    0.1121 H   0  0  0  0  0  0  0  0  0  0  0  0
    9.2182    1.0020    0.8899 H   0  0  0  0  0  0  0  0  0  0  0  0
   -7.3303   -0.6022   -0.9032 H   0  0  0  0  0  0  0  0  0  0  0  0
   -8.9645   -0.2418    0.9199 H   0  0  0  0  0  0  0  0  0  0  0  0
   -7.7768    0.9387    1.7353 H   0  0  0  0  0  0  0  0  0  0  0  0
  1 14  1  0  0  0  0
  1 15  1  0  0  0  0
  2 14  2  0  0  0  0
  3  4  1  0  0  0  0
  3  5  1  0  0  0  0
  3 17  1  0  0  0  0
  3 18  1  0  0  0  0
  4  6  1  0  0  0  0
  4 19  1  0  0  0  0
  4 20  1  0  0  0  0
  5  7  1  0  0  0  0
  5 21  1  0  0  0  0
  5 22  1  0  0  0  0
  6  8  1  0  0  0  0
  6 23  1  0  0  0  0
  6 24  1  0  0  0  0
  7  9  1  0  0  0  0
  7 25  1  0  0  0  0
  7 26  1  0  0  0  0
  8 10  1  0  0  0  0
  8 27  1  0  0  0  0
  8 28  1  0  0  0  0
  9 11  1  0  0  0  0
  9 29  1  0  0  0  0
  9 30  1  0  0  0  0
 10 12  1  0  0  0  0
 10 31  1  0  0  0  0
 10 32  1  0  0  0  0
 11 13  1  0  0  0  0
 11 33  1  0  0  0  0
 11 34  1  0  0  0  0
 12 14  1  0  0  0  0
 12 35  1  0  0  0  0
 12 36  1  0  0  0  0
 13 37  1  0  0  0  0
 13 38  1  0  0  0  0
 13 39  1  0  0  0  0
 15 16  2  0  0  0  0
 15 40  1  0  0  0  0
 16 41  1  0  0  0  0
 16 42  1  0  0  0  0
M  END
> <PUBCHEM_COMPOUND_CID>
75069

> <PUBCHEM_CONFORMER_RMSD>
1

> <PUBCHEM_CONFORMER_DIVERSEORDER>
1
103
108
79
166
28
150
93
11
207
170
45
173
125
82
22
71
114
130
163
57
115
104
165
136
160
172
8
106
53
26
158
201
139
88
100
19
18
96
105
156
44
72
27
75
21
155
42
209
10
64
46
49
78
184
74
9
162
56
31
76
117
85
6
131
12
43
52
84
62
25
191
202
113
145
37
143
168
86
109
20
211
116
177
99
180
58
110
111
80
61
148
141
32
195
121
15
208
69
192
144
14
98
176
175
190
188
102
127
169
24
33
138
95
3
118
128
206
70
186
107
164
134
129
124
183
68
171
159
54
193
5
59
151
152
135
29
87
205
36
182
94
60
179
40
119
199
200
48
47
146
210
174
34
196
122
189
212
140
181
126
153
2
13
41
132
120
81
50
142
90
123
17
35
154
194
178
23
161
112
39
38
91
185
198
147
55
92
66
4
157
51
65
167
16
197
133
77
137
30
67
149
73
204
89
83
203
97
63
101
7
187

> <PUBCHEM_MMFF94_PARTIAL_CHARGES>
9
1 -0.23
12 0.06
14 0.66
15 -0.07
16 -0.3
2 -0.57
40 0.15
41 0.15
42 0.15

> <PUBCHEM_EFFECTIVE_ROTOR_COUNT>
12

> <PUBCHEM_PHARMACOPHORE_FEATURES>
2
1 13 hydrophobe
1 2 acceptor

> <PUBCHEM_HEAVY_ATOM_COUNT>
16

> <PUBCHEM_ATOM_DEF_STEREO_COUNT>
0

> <PUBCHEM_ATOM_UDEF_STEREO_COUNT>
0

> <PUBCHEM_BOND_DEF_STEREO_COUNT>
0

> <PUBCHEM_BOND_UDEF_STEREO_COUNT>
0

> <PUBCHEM_ISOTOPIC_ATOM_COUNT>
0

> <PUBCHEM_COMPONENT_COUNT>
1

> <PUBCHEM_CACTVS_TAUTO_COUNT>
1

> <PUBCHEM_CONFORMER_ID>
0001253D00000001

> <PUBCHEM_MMFF94_ENERGY>
9.0931

> <PUBCHEM_FEATURE_SELFOVERLAP>
10.148

> <PUBCHEM_SHAPE_FINGERPRINT>
11315181 36 17989208157714982715
11638347 137 16515680023490023960
12091667 2 17240481403596522149
13533116 47 15482395249082473430
14123256 10 16443345369037178760
14251764 18 18408602543649385994
14251764 46 14333410051673491732
14729087 3 15267064723108661097
155225 1 15698007298157643049
15716309 27 18335419071422194382
17834076 25 18410292510174746996
18006028 8 17346878948903813136
20621476 8 18334293154140212908
21095086 128 14706927349773427577
21150785 3 12685092587739411568
21315763 28 8862942779901333198
22224240 67 15051728694955280004
23035841 295 18260547831708559051
232437 2 18411982468685498295
23521765 1 18341894090839338828
246663 6 16805325491563524649
28498 318 13470693633602179092
33684 2 18410573980856483841
4325135 7 18259984873043851582
59682541 35 17530686528343735056
67123 10 18410292527359884430
8209 1 18410292510575680148

> <PUBCHEM_SHAPE_MULTIPOLES>
317.53
29.34
0.86
0.68
16.01
0.11
-0.05
-0.54
-3.88
-0.32
0.02
-0.41
-0.02
-0.14

> <PUBCHEM_SHAPE_SELFOVERLAP>
580.401

> <PUBCHEM_SHAPE_VOLUME>
201.8

> <PUBCHEM_COORDINATE_TYPE>
2
5
10

$$$$
