76571
  -OEChem-02052300463D

 30 31  0     0  0  0  0  0  0999 V2000
    1.0577   -0.4725   -0.9432 O   0  0  0  0  0  0  0  0  0  0  0  0
    1.7249   -0.3335    1.2935 O   0  0  0  0  0  0  0  0  0  0  0  0
   -1.1709    0.1747   -0.2725 C   0  0  0  0  0  0  0  0  0  0  0  0
   -2.4568   -0.2210    0.1662 C   0  0  0  0  0  0  0  0  0  0  0  0
   -0.1969   -0.8067   -0.5186 C   0  0  0  0  0  0  0  0  0  0  0  0
    3.3201    0.1109   -0.4920 C   0  0  0  0  0  0  0  0  0  0  0  0
    4.3608    0.3912    0.5890 C   0  0  0  0  0  0  0  0  0  0  0  0
   -0.8969    1.5402   -0.4530 C   0  0  0  0  0  0  0  0  0  0  0  0
   -2.7308   -1.5867    0.3463 C   0  0  0  0  0  0  0  0  0  0  0  0
   -0.4862   -2.1590   -0.3342 C   0  0  0  0  0  0  0  0  0  0  0  0
   -3.4308    0.7604    0.4122 C   0  0  0  0  0  0  0  0  0  0  0  0
    1.9749   -0.2495    0.0988 C   0  0  0  0  0  0  0  0  0  0  0  0
   -1.7508   -2.5481    0.0974 C   0  0  0  0  0  0  0  0  0  0  0  0
   -1.8766    2.5019   -0.2038 C   0  0  0  0  0  0  0  0  0  0  0  0
    5.6991    0.7849   -0.0143 C   0  0  0  0  0  0  0  0  0  0  0  0
   -3.1409    2.1127    0.2281 C   0  0  0  0  0  0  0  0  0  0  0  0
    3.6516   -0.7231   -1.1203 H   0  0  0  0  0  0  0  0  0  0  0  0
    3.1876    1.0003   -1.1182 H   0  0  0  0  0  0  0  0  0  0  0  0
    4.4934   -0.4964    1.2192 H   0  0  0  0  0  0  0  0  0  0  0  0
    4.0105    1.1961    1.2464 H   0  0  0  0  0  0  0  0  0  0  0  0
    0.0783    1.8811   -0.7930 H   0  0  0  0  0  0  0  0  0  0  0  0
   -3.7122   -1.9139    0.6829 H   0  0  0  0  0  0  0  0  0  0  0  0
    0.2706   -2.9150   -0.5265 H   0  0  0  0  0  0  0  0  0  0  0  0
   -4.4261    0.4792    0.7503 H   0  0  0  0  0  0  0  0  0  0  0  0
   -1.9756   -3.6010    0.2406 H   0  0  0  0  0  0  0  0  0  0  0  0
    6.0927   -0.0143   -0.6505 H   0  0  0  0  0  0  0  0  0  0  0  0
    5.6050    1.6919   -0.6200 H   0  0  0  0  0  0  0  0  0  0  0  0
    6.4294    0.9796    0.7775 H   0  0  0  0  0  0  0  0  0  0  0  0
   -1.6521    3.5547   -0.3480 H   0  0  0  0  0  0  0  0  0  0  0  0
   -3.9031    2.8618    0.4218 H   0  0  0  0  0  0  0  0  0  0  0  0
  1  5  1  0  0  0  0
  1 12  1  0  0  0  0
  2 12  2  0  0  0  0
  3  4  1  0  0  0  0
  3  5  1  0  0  0  0
  3  8  2  0  0  0  0
  4  9  1  0  0  0  0
  4 11  2  0  0  0  0
  5 10  2  0  0  0  0
  6  7  1  0  0  0  0
  6 12  1  0  0  0  0
  6 17  1  0  0  0  0
  6 18  1  0  0  0  0
  7 15  1  0  0  0  0
  7 19  1  0  0  0  0
  7 20  1  0  0  0  0
  8 14  1  0  0  0  0
  8 21  1  0  0  0  0
  9 13  2  0  0  0  0
  9 22  1  0  0  0  0
 10 13  1  0  0  0  0
 10 23  1  0  0  0  0
 11 16  1  0  0  0  0
 11 24  1  0  0  0  0
 13 25  1  0  0  0  0
 14 16  2  0  0  0  0
 14 29  1  0  0  0  0
 15 26  1  0  0  0  0
 15 27  1  0  0  0  0
 15 28  1  0  0  0  0
 16 30  1  0  0  0  0
M  END
> <PUBCHEM_COMPOUND_CID>
76571

> <PUBCHEM_CONFORMER_RMSD>
0.6

> <PUBCHEM_CONFORMER_DIVERSEORDER>
2
19
29
16
38
36
18
8
49
55
1
28
35
57
17
58
11
39
44
59
41
12
43
34
47
10
3
48
27
42
40
22
14
46
13
21
54
7
20
56
15
52
5
25
9
24
51
45
53
30
6
50
33
37
60
32
23
4
26
31

> <PUBCHEM_MMFF94_PARTIAL_CHARGES>
19
1 -0.23
10 -0.15
11 -0.15
12 0.66
13 -0.15
14 -0.15
16 -0.15
2 -0.57
21 0.15
22 0.15
23 0.15
24 0.15
25 0.15
29 0.15
30 0.15
5 0.08
6 0.06
8 -0.15
9 -0.15

> <PUBCHEM_EFFECTIVE_ROTOR_COUNT>
4

> <PUBCHEM_PHARMACOPHORE_FEATURES>
4
1 15 hydrophobe
1 2 acceptor
6 3 4 5 9 10 13 rings
6 3 4 8 11 14 16 rings

> <PUBCHEM_HEAVY_ATOM_COUNT>
16

> <PUBCHEM_ATOM_DEF_STEREO_COUNT>
0

> <PUBCHEM_ATOM_UDEF_STEREO_COUNT>
0

> <PUBCHEM_BOND_DEF_STEREO_COUNT>
0

> <PUBCHEM_BOND_UDEF_STEREO_COUNT>
0

> <PUBCHEM_ISOTOPIC_ATOM_COUNT>
0

> <PUBCHEM_COMPONENT_COUNT>
1

> <PUBCHEM_CACTVS_TAUTO_COUNT>
1

> <PUBCHEM_CONFORMER_ID>
00012B1B00000002

> <PUBCHEM_MMFF94_ENERGY>
41.9197

> <PUBCHEM_FEATURE_SELFOVERLAP>
20.324

> <PUBCHEM_SHAPE_FINGERPRINT>
10319926 262 18341597241008610162
10411042 1 17906735061267681487
10493431 412 18269847428137342465
10608611 8 18343303643656394190
11132069 177 18408892814745700517
11265709 11 18123185981469052975
12011746 2 18341324557118011653
12173636 292 18338514144951265764
12236239 1 17676486172433235334
12251169 10 18333453135788712148
12390115 104 18128553586413108505
13140716 1 18194131935022715451
13214271 11 18343301491513808237
13583140 156 16877662344765863885
13764800 53 18341615884464765369
13897977 58 18335142029142026524
13965767 371 17465389616325145508
14420673 8 18047186350883945594
15042514 8 18337398265525540331
15219456 202 18131078099691448470
16945 1 18337402556439780175
1741750 31 18341892944420733072
18915476 22 17059793117317659318
200 152 14924217261592212890
20510252 161 18342743987869088025
20645477 56 18412548699867170828
20645477 70 16629975339334068590
21524375 3 18198897007605565199
21650355 55 18192995035188137011
2297311 6 18340501066106257518
2306618 200 18130233738821718827
23175994 123 16988573424244042128
23402539 116 18270674385403735711
23557571 272 18272100430514983588
23559900 14 18200881674050569350
2748010 2 17903374614994225391
4214541 1 18411136931622275436
7097593 13 18042390353844993802
7364860 26 17548699578407637279
77492 1 17603594057633432086
90316 7 17894908499397788724

> <PUBCHEM_SHAPE_MULTIPOLES>
317.53
7.96
2.49
0.83
13.8
0.14
-0.06
-3.11
-1.2
-2.93
0.09
0.23
0.03
0.08

> <PUBCHEM_SHAPE_SELFOVERLAP>
677.706

> <PUBCHEM_SHAPE_VOLUME>
175.4

> <PUBCHEM_COORDINATE_TYPE>
2
5
10

$$$$
