22023099
  -OEChem-03212304043D

 20 19  0     1  0  0  0  0  0999 V2000
   -2.7731    0.8988    0.9466 O   0  0  0  0  0  0  0  0  0  0  0  0
    0.0425    1.1536   -0.3797 O   0  0  0  0  0  0  0  0  0  0  0  0
    3.6792   -0.8201    0.2700 O   0  0  0  0  0  0  0  0  0  0  0  0
    2.6806    1.1321   -0.3145 O   0  0  0  0  0  0  0  0  0  0  0  0
   -2.5181    0.0698   -0.1827 C   0  0  1  0  0  0  0  0  0  0  0  0
   -1.2792   -0.7926    0.0572 C   0  0  0  0  0  0  0  0  0  0  0  0
    0.0356   -0.0446   -0.0951 C   0  0  0  0  0  0  0  0  0  0  0  0
   -3.7729   -0.7351   -0.4883 C   0  0  0  0  0  0  0  0  0  0  0  0
    1.3113   -0.8201    0.1703 C   0  0  0  0  0  0  0  0  0  0  0  0
    2.5941   -0.0419    0.0162 C   0  0  0  0  0  0  0  0  0  0  0  0
   -2.3390    0.7374   -1.0340 H   0  0  0  0  0  0  0  0  0  0  0  0
   -1.2535   -1.6156   -0.6660 H   0  0  0  0  0  0  0  0  0  0  0  0
   -1.3043   -1.2095    1.0704 H   0  0  0  0  0  0  0  0  0  0  0  0
   -4.0340   -1.3809    0.3573 H   0  0  0  0  0  0  0  0  0  0  0  0
   -4.6285   -0.0719   -0.6550 H   0  0  0  0  0  0  0  0  0  0  0  0
   -3.6382   -1.3591   -1.3769 H   0  0  0  0  0  0  0  0  0  0  0  0
    1.3392   -1.6600   -0.5315 H   0  0  0  0  0  0  0  0  0  0  0  0
    1.2641   -1.1921    1.1990 H   0  0  0  0  0  0  0  0  0  0  0  0
   -3.5370    1.4619    0.7345 H   0  0  0  0  0  0  0  0  0  0  0  0
    4.5182   -0.3235    0.1612 H   0  0  0  0  0  0  0  0  0  0  0  0
  1  5  1  0  0  0  0
  1 19  1  0  0  0  0
  2  7  2  0  0  0  0
  3 10  1  0  0  0  0
  3 20  1  0  0  0  0
  4 10  2  0  0  0  0
  5  6  1  0  0  0  0
  5  8  1  0  0  0  0
  5 11  1  0  0  0  0
  6  7  1  0  0  0  0
  6 12  1  0  0  0  0
  6 13  1  0  0  0  0
  7  9  1  0  0  0  0
  8 14  1  0  0  0  0
  8 15  1  0  0  0  0
  8 16  1  0  0  0  0
  9 10  1  0  0  0  0
  9 17  1  0  0  0  0
  9 18  1  0  0  0  0
M  END
> <PUBCHEM_COMPOUND_CID>
22023099

> <PUBCHEM_CONFORMER_RMSD>
0.6

> <PUBCHEM_CONFORMER_DIVERSEORDER>
1
67
114
66
16
73
128
32
110
11
127
60
126
29
111
4
55
77
24
72
18
8
118
20
125
101
62
48
129
117
104
50
14
13
61
51
54
3
112
74
99
39
123
25
100
49
96
106
80
120
79
2
23
98
65
85
9
91
59
84
94
63
93
58
68
102
12
44
52
81
121
113
15
33
131
19
17
42
57
90
116
83
56
71
108
115
7
64
41
78
130
6
86
43
97
109
103
10
45
47
21
28
92
119
26
132
105
5
34
38
95
75
37
31
40
27
53
107
124
87
46
88
70
22
30
76
89
122
69
82
35
36

> <PUBCHEM_MMFF94_PARTIAL_CHARGES>
11
1 -0.68
10 0.66
19 0.4
2 -0.57
20 0.5
3 -0.65
4 -0.57
5 0.28
6 0.06
7 0.45
9 0.12

> <PUBCHEM_EFFECTIVE_ROTOR_COUNT>
4

> <PUBCHEM_PHARMACOPHORE_FEATURES>
7
1 1 acceptor
1 1 donor
1 2 acceptor
1 3 acceptor
1 4 acceptor
1 9 anion
3 3 4 10 anion

> <PUBCHEM_HEAVY_ATOM_COUNT>
10

> <PUBCHEM_ATOM_DEF_STEREO_COUNT>
0

> <PUBCHEM_ATOM_UDEF_STEREO_COUNT>
1

> <PUBCHEM_BOND_DEF_STEREO_COUNT>
0

> <PUBCHEM_BOND_UDEF_STEREO_COUNT>
0

> <PUBCHEM_ISOTOPIC_ATOM_COUNT>
0

> <PUBCHEM_COMPONENT_COUNT>
1

> <PUBCHEM_CACTVS_TAUTO_COUNT>
5

> <PUBCHEM_CONFORMER_ID>
01500BBB00000001

> <PUBCHEM_MMFF94_ENERGY>
8.3214

> <PUBCHEM_FEATURE_SELFOVERLAP>
35.851

> <PUBCHEM_SHAPE_FINGERPRINT>
10219947 1 18187366540559791494
11062470 55 11386365932794770286
12162725 195 18343304768605587761
12932764 1 16950275217655147290
14325111 11 18411138047517239391
14390081 3 18202845469582270361
14993402 34 18412261765723224727
190213 19 18342453742294923551
20201158 50 18113335293159366962
23402539 116 17775275063607148453
29004967 10 16588027900438230537
3248919 1 18272371970615276798

> <PUBCHEM_SHAPE_MULTIPOLES>
182.32
6.32
1.11
0.71
0.16
0.13
-0.05
-0.73
0.06
-0.12
-0.01
0.28
0.06
-0.48

> <PUBCHEM_SHAPE_SELFOVERLAP>
343.81

> <PUBCHEM_SHAPE_VOLUME>
112.5

> <PUBCHEM_COORDINATE_TYPE>
2
5
10

$$$$
