439717
  -OEChem-03212304043D

 37 36  0     0  0  0  0  0  0999 V2000
    3.2249   -1.2889    0.5249 O   0  0  0  0  0  0  0  0  0  0  0  0
    6.7437    0.8204   -0.3640 O   0  0  0  0  0  0  0  0  0  0  0  0
    5.6195   -1.1216   -0.7281 O   0  0  0  0  0  0  0  0  0  0  0  0
   -1.9337   -0.2891    0.2493 C   0  0  0  0  0  0  0  0  0  0  0  0
   -3.2331    0.4960    0.0570 C   0  0  0  0  0  0  0  0  0  0  0  0
   -0.6783    0.5875    0.2057 C   0  0  0  0  0  0  0  0  0  0  0  0
   -4.4506   -0.4322    0.0873 C   0  0  0  0  0  0  0  0  0  0  0  0
    0.6247   -0.2103    0.3245 C   0  0  0  0  0  0  0  0  0  0  0  0
   -5.7471    0.3477   -0.1427 C   0  0  0  0  0  0  0  0  0  0  0  0
    1.8619    0.6805    0.2120 C   0  0  0  0  0  0  0  0  0  0  0  0
   -6.9946   -0.5385   -0.1464 C   0  0  0  0  0  0  0  0  0  0  0  0
    3.1768   -0.0777    0.3153 C   0  0  0  0  0  0  0  0  0  0  0  0
   -8.2779    0.2209   -0.4452 C   0  0  0  0  0  0  0  0  0  0  0  0
    4.4309    0.7635    0.1981 C   0  0  0  0  0  0  0  0  0  0  0  0
    5.6328    0.0417   -0.3477 C   0  0  0  0  0  0  0  0  0  0  0  0
   -1.8594   -1.0559   -0.5320 H   0  0  0  0  0  0  0  0  0  0  0  0
   -1.9670   -0.8187    1.2096 H   0  0  0  0  0  0  0  0  0  0  0  0
   -3.3246    1.2529    0.8452 H   0  0  0  0  0  0  0  0  0  0  0  0
   -3.1988    1.0282   -0.9012 H   0  0  0  0  0  0  0  0  0  0  0  0
   -0.6690    1.1486   -0.7370 H   0  0  0  0  0  0  0  0  0  0  0  0
   -0.7261    1.3271    1.0143 H   0  0  0  0  0  0  0  0  0  0  0  0
   -4.3464   -1.2022   -0.6867 H   0  0  0  0  0  0  0  0  0  0  0  0
   -4.4990   -0.9483    1.0537 H   0  0  0  0  0  0  0  0  0  0  0  0
    0.6399   -0.7435    1.2831 H   0  0  0  0  0  0  0  0  0  0  0  0
    0.6569   -0.9769   -0.4598 H   0  0  0  0  0  0  0  0  0  0  0  0
   -5.8539    1.1146    0.6345 H   0  0  0  0  0  0  0  0  0  0  0  0
   -5.6830    0.8765   -1.1020 H   0  0  0  0  0  0  0  0  0  0  0  0
    1.8487    1.4328    1.0088 H   0  0  0  0  0  0  0  0  0  0  0  0
    1.8509    1.1986   -0.7536 H   0  0  0  0  0  0  0  0  0  0  0  0
   -6.8743   -1.3316   -0.8940 H   0  0  0  0  0  0  0  0  0  0  0  0
   -7.0913   -1.0325    0.8277 H   0  0  0  0  0  0  0  0  0  0  0  0
   -8.2312    0.6933   -1.4315 H   0  0  0  0  0  0  0  0  0  0  0  0
   -8.4516    1.0018    0.3019 H   0  0  0  0  0  0  0  0  0  0  0  0
   -9.1347   -0.4599   -0.4332 H   0  0  0  0  0  0  0  0  0  0  0  0
    4.2241    1.6006   -0.4772 H   0  0  0  0  0  0  0  0  0  0  0  0
    4.6656    1.1467    1.1961 H   0  0  0  0  0  0  0  0  0  0  0  0
    7.5225    0.3396   -0.7171 H   0  0  0  0  0  0  0  0  0  0  0  0
  1 12  2  0  0  0  0
  2 15  1  0  0  0  0
  2 37  1  0  0  0  0
  3 15  2  0  0  0  0
  4  5  1  0  0  0  0
  4  6  1  0  0  0  0
  4 16  1  0  0  0  0
  4 17  1  0  0  0  0
  5  7  1  0  0  0  0
  5 18  1  0  0  0  0
  5 19  1  0  0  0  0
  6  8  1  0  0  0  0
  6 20  1  0  0  0  0
  6 21  1  0  0  0  0
  7  9  1  0  0  0  0
  7 22  1  0  0  0  0
  7 23  1  0  0  0  0
  8 10  1  0  0  0  0
  8 24  1  0  0  0  0
  8 25  1  0  0  0  0
  9 11  1  0  0  0  0
  9 26  1  0  0  0  0
  9 27  1  0  0  0  0
 10 12  1  0  0  0  0
 10 28  1  0  0  0  0
 10 29  1  0  0  0  0
 11 13  1  0  0  0  0
 11 30  1  0  0  0  0
 11 31  1  0  0  0  0
 12 14  1  0  0  0  0
 13 32  1  0  0  0  0
 13 33  1  0  0  0  0
 13 34  1  0  0  0  0
 14 15  1  0  0  0  0
 14 35  1  0  0  0  0
 14 36  1  0  0  0  0
M  END
> <PUBCHEM_COMPOUND_CID>
439717

> <PUBCHEM_CONFORMER_RMSD>
1.2

> <PUBCHEM_CONFORMER_DIVERSEORDER>
1
6
41
16
30
47
8
12
17
31
4
44
33
5
32
11
48
24
7
26
38
19
21
36
25
34
46
14
45
40
15
35
2
10
9
27
13
23
43
3
42
20
29
28
18
39
22
37

> <PUBCHEM_MMFF94_PARTIAL_CHARGES>
8
1 -0.57
10 0.06
12 0.45
14 0.12
15 0.66
2 -0.65
3 -0.57
37 0.5

> <PUBCHEM_EFFECTIVE_ROTOR_COUNT>
10

> <PUBCHEM_PHARMACOPHORE_FEATURES>
6
1 1 acceptor
1 13 hydrophobe
1 14 anion
1 2 acceptor
1 3 acceptor
3 2 3 15 anion

> <PUBCHEM_HEAVY_ATOM_COUNT>
15

> <PUBCHEM_ATOM_DEF_STEREO_COUNT>
0

> <PUBCHEM_ATOM_UDEF_STEREO_COUNT>
0

> <PUBCHEM_BOND_DEF_STEREO_COUNT>
0

> <PUBCHEM_BOND_UDEF_STEREO_COUNT>
0

> <PUBCHEM_ISOTOPIC_ATOM_COUNT>
0

> <PUBCHEM_COMPONENT_COUNT>
1

> <PUBCHEM_CACTVS_TAUTO_COUNT>
5

> <PUBCHEM_CONFORMER_ID>
0006B5A500000001

> <PUBCHEM_MMFF94_ENERGY>
2.7131

> <PUBCHEM_FEATURE_SELFOVERLAP>
30.776

> <PUBCHEM_SHAPE_FINGERPRINT>
10968037 39 18260266357127402787
11315181 36 18272092721475929281
11638347 137 9727641608779422605
12091667 2 18113337519038700321
12714333 28 16370443358247629336
13167372 99 10881672499186018151
13533116 47 18342453695024410099
14123256 10 18260829302042149253
1420 363 13973966510730056777
14251718 22 18260830397068918657
14251764 18 17917714591493271921
14251764 46 18410855464423129104
14729087 3 12613023995234750823
15048467 5 13623531259799480279
15716309 27 11024105447772671945
17834072 8 18408885144382301251
17834076 25 17095241423488558561
18006028 8 17418093222203274065
20281389 69 14923937955505363389
20621476 8 18335701612094171845
20645477 70 18189050911313037050
20735858 18 10663821875503040245
20767249 213 13262397765442374433
21130983 4 13262399955738603967
21150785 3 18187364342063978589
22224240 67 8646767790364412769
23035841 295 16343702140997791655
23402539 116 16415476047998143409
23521765 1 18342175574970473505
23559900 14 18339075007856698817
246663 6 15338845265785979876
28498 318 17846780681312081621
33532 11 14764353716874267780
33684 2 18410572885639823369
3545911 37 18333168379804913131
42788 4 18341894095551154569
59682541 35 9295277349065111191
8209 1 18410011043946343404

> <PUBCHEM_SHAPE_MULTIPOLES>
291.09
22.61
0.95
0.7
18.78
0.1
-0.01
0.17
-4.8
-0.75
0
-0.15
0.03
0.14

> <PUBCHEM_SHAPE_SELFOVERLAP>
537.803

> <PUBCHEM_SHAPE_VOLUME>
182.6

> <PUBCHEM_COORDINATE_TYPE>
2
5
10

$$$$
