97045
  -OEChem-03212304043D

 20 20  0     0  0  0  0  0  0999 V2000
    0.9385   -1.5563    0.7490 O   0  0  0  0  0  0  0  0  0  0  0  0
    3.8444    1.2647   -0.3484 O   0  0  0  0  0  0  0  0  0  0  0  0
    3.2778   -0.9362   -0.4068 O   0  0  0  0  0  0  0  0  0  0  0  0
   -0.8489   -0.1441    0.1620 C   0  0  0  0  0  0  0  0  0  0  0  0
    0.5588   -0.4204    0.3997 C   0  0  0  0  0  0  0  0  0  0  0  0
    1.6012    0.6888    0.2118 C   0  0  0  0  0  0  0  0  0  0  0  0
   -1.3546    1.1376    0.3797 C   0  0  0  0  0  0  0  0  0  0  0  0
   -1.6936   -1.1607   -0.2841 C   0  0  0  0  0  0  0  0  0  0  0  0
   -2.7049    1.4028    0.1515 C   0  0  0  0  0  0  0  0  0  0  0  0
   -3.0440   -0.8954   -0.5124 C   0  0  0  0  0  0  0  0  0  0  0  0
   -3.5495    0.3864   -0.2946 C   0  0  0  0  0  0  0  0  0  0  0  0
    2.9747    0.2328   -0.2075 C   0  0  0  0  0  0  0  0  0  0  0  0
    1.2503    1.3745   -0.5674 H   0  0  0  0  0  0  0  0  0  0  0  0
    1.6918    1.2198    1.1653 H   0  0  0  0  0  0  0  0  0  0  0  0
   -0.7237    1.9450    0.7406 H   0  0  0  0  0  0  0  0  0  0  0  0
   -1.3174   -2.1645   -0.4636 H   0  0  0  0  0  0  0  0  0  0  0  0
   -3.0996    2.3998    0.3242 H   0  0  0  0  0  0  0  0  0  0  0  0
   -3.7017   -1.6864   -0.8606 H   0  0  0  0  0  0  0  0  0  0  0  0
   -4.6009    0.5927   -0.4718 H   0  0  0  0  0  0  0  0  0  0  0  0
    4.7345    0.9580   -0.6245 H   0  0  0  0  0  0  0  0  0  0  0  0
  1  5  2  0  0  0  0
  2 12  1  0  0  0  0
  2 20  1  0  0  0  0
  3 12  2  0  0  0  0
  4  5  1  0  0  0  0
  4  7  2  0  0  0  0
  4  8  1  0  0  0  0
  5  6  1  0  0  0  0
  6 12  1  0  0  0  0
  6 13  1  0  0  0  0
  6 14  1  0  0  0  0
  7  9  1  0  0  0  0
  7 15  1  0  0  0  0
  8 10  2  0  0  0  0
  8 16  1  0  0  0  0
  9 11  2  0  0  0  0
  9 17  1  0  0  0  0
 10 11  1  0  0  0  0
 10 18  1  0  0  0  0
 11 19  1  0  0  0  0
M  END
> <PUBCHEM_COMPOUND_CID>
97045

> <PUBCHEM_CONFORMER_RMSD>
0.6

> <PUBCHEM_CONFORMER_DIVERSEORDER>
2
15
11
8
18
5
9
14
17
4
13
1
3
12
10
7
16
6

> <PUBCHEM_MMFF94_PARTIAL_CHARGES>
18
1 -0.57
10 -0.15
11 -0.15
12 0.66
15 0.15
16 0.15
17 0.15
18 0.15
19 0.15
2 -0.65
20 0.5
3 -0.57
4 0.09
5 0.42
6 0.12
7 -0.15
8 -0.15
9 -0.15

> <PUBCHEM_EFFECTIVE_ROTOR_COUNT>
3

> <PUBCHEM_PHARMACOPHORE_FEATURES>
6
1 1 acceptor
1 2 acceptor
1 3 acceptor
1 6 anion
3 2 3 12 anion
6 4 7 8 9 10 11 rings

> <PUBCHEM_HEAVY_ATOM_COUNT>
12

> <PUBCHEM_ATOM_DEF_STEREO_COUNT>
0

> <PUBCHEM_ATOM_UDEF_STEREO_COUNT>
0

> <PUBCHEM_BOND_DEF_STEREO_COUNT>
0

> <PUBCHEM_BOND_UDEF_STEREO_COUNT>
0

> <PUBCHEM_ISOTOPIC_ATOM_COUNT>
0

> <PUBCHEM_COMPONENT_COUNT>
1

> <PUBCHEM_CACTVS_TAUTO_COUNT>
3

> <PUBCHEM_CONFORMER_ID>
00017B1500000002

> <PUBCHEM_MMFF94_ENERGY>
26.651

> <PUBCHEM_FEATURE_SELFOVERLAP>
30.775

> <PUBCHEM_SHAPE_FINGERPRINT>
12346645 44 18334011692043103322
12897270 3 18412821404298974083
12932764 1 17749665195090093491
13024252 1 17894912945242229907
14144814 61 18409165489281446777
14325111 11 18410856559835052848
15669948 3 18272359901999950175
15775835 57 18408325462456094893
16945 1 18339909490047991723
18186145 218 18259987059118888654
20281407 28 14405187261324131788
20361792 2 13830131684965330904
20645464 45 13045937989166001881
20653085 51 18336837423999511280
20871999 31 18270667792750125919
23402539 116 18339352054927686444
23402655 69 18412543180438784164
23552423 10 18192986028952927795
23559900 14 18202561783594142584
2748010 2 17763447814295093971
369184 2 11818992985231889133
528716 315 18341334474060101215
57096353 35 18410851109431883967
7364860 26 18268424629683298634
8030462 33 18340189831069089459
93112 12 18342460331012015694

> <PUBCHEM_SHAPE_MULTIPOLES>
229.35
6.4
1.47
0.72
3.03
0
-0.02
-1.05
1.39
-0.21
-0.06
0
0.06
-0.34

> <PUBCHEM_SHAPE_SELFOVERLAP>
476.779

> <PUBCHEM_SHAPE_VOLUME>
129.7

> <PUBCHEM_COORDINATE_TYPE>
2
5
10

$$$$
