5324674
  -OEChem-03162322533D

 16 15  0     1  0  0  0  0  0999 V2000
    2.2914   -1.7354    0.2535 N   0  0  0  0  0  0  0  0  0  0  0  0
   -3.6039   -0.0603    0.3363 N   0  0  0  0  0  0  0  0  0  0  0  0
    1.2445    0.6012   -0.3729 C   0  0  1  0  0  0  0  0  0  0  0  0
   -0.2110    0.7110    0.1143 C   0  0  0  0  0  0  0  0  0  0  0  0
   -1.1298   -0.3456   -0.5094 C   0  0  0  0  0  0  0  0  0  0  0  0
    2.0902    1.7211    0.2355 C   0  0  0  0  0  0  0  0  0  0  0  0
    1.8305   -0.7064   -0.0213 C   0  0  0  0  0  0  0  0  0  0  0  0
   -2.5119   -0.1855   -0.0360 C   0  0  0  0  0  0  0  0  0  0  0  0
    1.2611    0.7133   -1.4642 H   0  0  0  0  0  0  0  0  0  0  0  0
   -0.2465    0.6199    1.2090 H   0  0  0  0  0  0  0  0  0  0  0  0
   -0.5967    1.7112   -0.1250 H   0  0  0  0  0  0  0  0  0  0  0  0
   -0.7872   -1.3549   -0.2572 H   0  0  0  0  0  0  0  0  0  0  0  0
   -1.1054   -0.2589   -1.6018 H   0  0  0  0  0  0  0  0  0  0  0  0
    1.6915    2.7033   -0.0396 H   0  0  0  0  0  0  0  0  0  0  0  0
    2.1134    1.6583    1.3296 H   0  0  0  0  0  0  0  0  0  0  0  0
    3.1253    1.6680   -0.1208 H   0  0  0  0  0  0  0  0  0  0  0  0
  1  7  3  0  0  0  0
  2  8  3  0  0  0  0
  3  4  1  0  0  0  0
  3  6  1  0  0  0  0
  3  7  1  0  0  0  0
  3  9  1  0  0  0  0
  4  5  1  0  0  0  0
  4 10  1  0  0  0  0
  4 11  1  0  0  0  0
  5  8  1  0  0  0  0
  5 12  1  0  0  0  0
  5 13  1  0  0  0  0
  6 14  1  0  0  0  0
  6 15  1  0  0  0  0
  6 16  1  0  0  0  0
M  END
> <PUBCHEM_COMPOUND_CID>
5324674

> <PUBCHEM_CONFORMER_RMSD>
0.4

> <PUBCHEM_CONFORMER_DIVERSEORDER>
1
7
5
4
8
2
6
3

> <PUBCHEM_MMFF94_PARTIAL_CHARGES>
6
1 -0.56
2 -0.56
3 0.2
5 0.2
7 0.36
8 0.36

> <PUBCHEM_EFFECTIVE_ROTOR_COUNT>
2

> <PUBCHEM_PHARMACOPHORE_FEATURES>
3
1 1 acceptor
1 2 acceptor
1 6 hydrophobe

> <PUBCHEM_HEAVY_ATOM_COUNT>
8

> <PUBCHEM_ATOM_DEF_STEREO_COUNT>
1

> <PUBCHEM_ATOM_UDEF_STEREO_COUNT>
0

> <PUBCHEM_BOND_DEF_STEREO_COUNT>
0

> <PUBCHEM_BOND_UDEF_STEREO_COUNT>
0

> <PUBCHEM_ISOTOPIC_ATOM_COUNT>
0

> <PUBCHEM_COMPONENT_COUNT>
1

> <PUBCHEM_CACTVS_TAUTO_COUNT>
1

> <PUBCHEM_CONFORMER_ID>
00513F8200000001

> <PUBCHEM_MMFF94_ENERGY>
3.7959

> <PUBCHEM_FEATURE_SELFOVERLAP>
15.223

> <PUBCHEM_SHAPE_FINGERPRINT>
12932764 1 18342460369809289133
14325111 11 18411983594035163855
14390081 3 17988082330337696457
20645477 70 18411132533402172111
20651381 32 18409157793211820325
20653091 64 18411704244819546512
20711978 78 18341038653845149468
20871998 22 18127132970451122334
21040471 1 17905887333797141164
23552333 60 18202288013050302288
23552423 10 18409449227853647989
23552449 11 18412260618951060686
29004967 10 18186801421669146957
3248919 1 17531528793021153621

> <PUBCHEM_SHAPE_MULTIPOLES>
154.67
4.69
1.49
0.67
4.04
0.1
-0.03
0.34
0.6
-1.65
0.16
0.02
-0.01
-0.09

> <PUBCHEM_SHAPE_SELFOVERLAP>
283.666

> <PUBCHEM_SHAPE_VOLUME>
94.5

> <PUBCHEM_COORDINATE_TYPE>
2
5
10

$$$$
