6999906
  -OEChem-03162322533D

 19 19  0     1  0  0  0  0  0999 V2000
    2.9593   -1.1183    0.9973 N   0  0  0  0  0  0  0  0  0  0  0  0
    1.3840    0.2108   -0.6619 C   0  0  1  0  0  0  0  0  0  0  0  0
   -0.0592    0.0824   -0.3085 C   0  0  0  0  0  0  0  0  0  0  0  0
    1.8472    1.6784   -0.7366 C   0  0  0  0  0  0  0  0  0  0  0  0
   -0.8207   -0.9527   -0.8511 C   0  0  0  0  0  0  0  0  0  0  0  0
   -0.6476    0.9972    0.5650 C   0  0  0  0  0  0  0  0  0  0  0  0
   -2.1705   -1.0731   -0.5205 C   0  0  0  0  0  0  0  0  0  0  0  0
   -1.9975    0.8767    0.8955 C   0  0  0  0  0  0  0  0  0  0  0  0
   -2.7588   -0.1584    0.3528 C   0  0  0  0  0  0  0  0  0  0  0  0
    2.2636   -0.5430    0.2679 C   0  0  0  0  0  0  0  0  0  0  0  0
    1.5282   -0.2031   -1.6697 H   0  0  0  0  0  0  0  0  0  0  0  0
    2.8511    1.7312   -1.1759 H   0  0  0  0  0  0  0  0  0  0  0  0
    1.9188    2.1516    0.2493 H   0  0  0  0  0  0  0  0  0  0  0  0
    1.1809    2.2784   -1.3665 H   0  0  0  0  0  0  0  0  0  0  0  0
   -0.3754   -1.6738   -1.5315 H   0  0  0  0  0  0  0  0  0  0  0  0
   -0.0864    1.8043    1.0244 H   0  0  0  0  0  0  0  0  0  0  0  0
   -2.7632   -1.8795   -0.9424 H   0  0  0  0  0  0  0  0  0  0  0  0
   -2.4551    1.5858    1.5792 H   0  0  0  0  0  0  0  0  0  0  0  0
   -3.8094   -0.2530    0.6112 H   0  0  0  0  0  0  0  0  0  0  0  0
  1 10  3  0  0  0  0
  2  3  1  0  0  0  0
  2  4  1  0  0  0  0
  2 10  1  0  0  0  0
  2 11  1  0  0  0  0
  3  5  2  0  0  0  0
  3  6  1  0  0  0  0
  4 12  1  0  0  0  0
  4 13  1  0  0  0  0
  4 14  1  0  0  0  0
  5  7  1  0  0  0  0
  5 15  1  0  0  0  0
  6  8  2  0  0  0  0
  6 16  1  0  0  0  0
  7  9  2  0  0  0  0
  7 17  1  0  0  0  0
  8  9  1  0  0  0  0
  8 18  1  0  0  0  0
  9 19  1  0  0  0  0
M  END
> <PUBCHEM_COMPOUND_CID>
6999906

> <PUBCHEM_CONFORMER_RMSD>
0.4

> <PUBCHEM_CONFORMER_DIVERSEORDER>
2
3
1

> <PUBCHEM_MMFF94_PARTIAL_CHARGES>
14
1 -0.56
10 0.36
15 0.15
16 0.15
17 0.15
18 0.15
19 0.15
2 0.34
3 -0.14
5 -0.15
6 -0.15
7 -0.15
8 -0.15
9 -0.15

> <PUBCHEM_EFFECTIVE_ROTOR_COUNT>
1

> <PUBCHEM_PHARMACOPHORE_FEATURES>
3
1 1 acceptor
1 4 hydrophobe
6 3 5 6 7 8 9 rings

> <PUBCHEM_HEAVY_ATOM_COUNT>
10

> <PUBCHEM_ATOM_DEF_STEREO_COUNT>
1

> <PUBCHEM_ATOM_UDEF_STEREO_COUNT>
0

> <PUBCHEM_BOND_DEF_STEREO_COUNT>
0

> <PUBCHEM_BOND_UDEF_STEREO_COUNT>
0

> <PUBCHEM_ISOTOPIC_ATOM_COUNT>
0

> <PUBCHEM_COMPONENT_COUNT>
1

> <PUBCHEM_CACTVS_TAUTO_COUNT>
1

> <PUBCHEM_CONFORMER_ID>
006ACF6200000002

> <PUBCHEM_MMFF94_ENERGY>
21.6778

> <PUBCHEM_FEATURE_SELFOVERLAP>
15.223

> <PUBCHEM_SHAPE_FINGERPRINT>
10857977 72 17275386542512766819
12932764 1 18188220869758478109
15310529 11 18114749338380124077
16945 1 17632304492541639949
20645464 45 15841551868497590798
20653091 64 18335420214010004672
21040471 1 17702401571305582997
23552333 60 18338520845232161408
23552423 10 18052257598514607605
2748010 2 17478632117442781349
29004967 10 17095527343561384821
3248919 1 18059861661939128991
369184 2 18187086178264414477
5084963 1 18411136922336093097

> <PUBCHEM_SHAPE_MULTIPOLES>
200.81
4.14
1.42
1.03
0.59
0.23
0.04
-0.69
0.87
0.27
-0.07
0.26
-0.02
-0.97

> <PUBCHEM_SHAPE_SELFOVERLAP>
411.846

> <PUBCHEM_SHAPE_VOLUME>
114.3

> <PUBCHEM_COORDINATE_TYPE>
2
5
10

$$$$
